54
Generated with con2xyz
Au   12.462104   15.381090   17.158326
Au   14.728926   14.414223   18.490976
Au   12.029165   13.852883   14.908709
Au   11.972188   18.064467   17.105841
Au   14.258464   19.467229   17.040246
Au   14.732566   14.351513   15.687735
Au   18.237829   13.337048   13.064402
Au   19.465259   11.857464   14.965525
Au   15.513357   13.351580   13.121747
Au   12.777366   13.079327   12.424730
Au   13.960513   11.868665   14.792429
Au   14.547552   14.004746   10.645575
Au   12.957950   12.714954   17.189301
Au   14.192651   17.094696   15.613186
Au   17.579604   13.930048   15.679064
Au   13.711633   15.509537   13.234898
Au   16.769409   11.501210   14.738400
Au   11.533732   16.652701   14.844402
Au   15.567619   12.122858   17.105864
Au   14.145229   17.070322   18.492179
Au   16.575220   16.175604   19.714437
Au   14.737614   16.736701   10.987179
Au   12.380397   15.481670   10.661199
Au   12.653972   19.185014   14.701506
Au   12.252413   17.600199   12.373778
Au   10.913798   15.088480   12.767581
Au   16.164435   18.784341   18.943396
Au   16.637895   20.755551   16.980613
Au   20.256742   20.620763   17.680185
Au   14.991229   20.655961   14.747969
Au   16.890186   15.060539   11.346817
Au   19.885046   13.631410   17.143954
Au   16.456814   15.961768   13.949356
Au   20.382320   14.337840   14.563154
Au   19.084528   15.926877   12.694912
Au   17.068416   20.193975   13.140888
Au   16.479603   16.252429   17.032386
Au   19.029830   15.985804   18.312084
Au   18.845827   16.511464   15.454605
Au   18.159364   11.524020   17.203865
Au   17.379148   13.817692   18.458269
Au   20.442305   19.968331   20.245629
Au   17.144751   17.753942   11.920589
Au   14.789337   18.398980   13.159325
Au   19.198957   18.544845   13.559581
Au   16.687481   18.504138   15.224907
Au   18.741127   20.515930   15.346402
Au   18.427040   18.578064   17.390507
Au   20.785154   18.667916   15.855449
Au   18.581010   18.061362   20.113696
Au   21.304166   16.805051   14.012209
Au   20.910479   18.021107   18.526524
Au   18.096550   20.662439   19.286817
Au   21.256852   16.014631   16.638375
