54
Generated with con2xyz
Au   14.132940   13.272116   10.416656
Au   14.625617   13.463224   13.049579
Au   15.078178   13.590963   15.919367
Au   14.961524   14.103805   18.734087
Au   16.716796   13.774576   11.176629
Au   17.213870   13.651341   14.164187
Au   17.012028   15.460903   16.552824
Au   16.454035   16.475897   19.068080
Au   14.917894   15.794593   11.410951
Au   15.430011   15.946516   14.200780
Au   14.296792   16.185729   16.849470
Au   13.835982   16.527060   19.567839
Au   12.372608   14.828275   11.848817
Au   12.806711   15.080967   14.595231
Au   12.535981   13.944486   17.154054
Au   12.414256   14.177464   19.839045
Au   12.319186   12.043571   12.106320
Au   12.787375   12.275091   14.869533
Au   14.086996   11.469974   17.341433
Au   13.793062   11.731779   19.976710
Au   17.395025   11.537053   12.398598
Au   15.481582   11.130439   14.542750
Au   17.710031   12.701506   16.782361
Au   16.393465   11.809251   19.059912
Au   19.171361   13.805499   12.411410
Au   19.134703   15.716315   14.660146
Au   18.804571   17.328904   17.009684
Au   17.559825   16.046360   12.450393
Au   17.381874   17.820682   14.742358
Au   16.223324   18.280637   17.166319
Au   15.762566   18.134645   12.579395
Au   14.565297   18.468017   15.064142
Au   13.488061   18.546123   17.688670
Au   13.189249   17.315665   12.960828
Au   12.028696   17.548055   15.565198
Au   11.650940   16.439179   18.058830
Au   10.690107   16.375889   13.419074
Au   10.325229   15.305287   15.895902
Au   10.097600   14.198643   18.384874
Au   10.582460   13.642372   13.630454
Au   10.268894   12.535694   16.153755
Au   11.441474   11.838554   18.581974
Au   10.602280   10.918353   13.897767
Au   11.697561   10.135723   16.242342
Au   12.630557   9.439848   18.649976
Au   13.142040   9.844008   13.777594
Au   14.191820   9.044763   16.244044
Au   15.190966   9.430500   18.964112
Au   14.803838   11.011940   11.853566
Au   16.619938   10.150981   16.832395
Au   17.755147   14.181828   19.040193
Au   18.255601   10.936791   14.805336
Au   19.813903   13.117998   14.958929
Au   19.605742   14.742417   17.147778
