54
Generated with con2xyz
Au   14.566022   13.884091   9.969834
Au   14.566022   13.884091   12.656436
Au   14.566022   13.884091   15.564299
Au   14.566022   13.884091   18.531930
Au   16.880188   14.636008   11.297128
Au   16.879710   14.635853   14.139686
Au   16.873329   14.633780   16.964241
Au   16.903369   14.643540   19.744038
Au   14.566022   16.317348   11.297128
Au   14.566022   16.316846   14.139686
Au   14.566022   16.310137   16.964241
Au   14.566022   16.341722   19.744038
Au   12.251857   14.636008   11.297128
Au   12.252334   14.635853   14.139686
Au   12.258715   14.633780   16.964241
Au   12.228676   14.643540   19.744038
Au   13.135789   11.915544   11.297128
Au   13.136084   11.915950   14.139686
Au   13.140028   11.921378   16.964241
Au   13.121463   11.895825   19.744038
Au   15.996255   11.915544   11.297128
Au   15.995960   11.915950   14.139686
Au   15.992016   11.921378   16.964241
Au   16.010582   11.895825   19.744038
Au   19.041228   15.338173   12.811937
Au   19.109741   15.360434   15.545178
Au   19.054068   15.342345   18.272725
Au   16.852622   17.031325   12.729335
Au   16.908965   17.108875   15.547636
Au   16.858480   17.039387   18.366999
Au   14.566022   18.589600   12.811937
Au   14.566022   18.661639   15.545178
Au   14.566022   18.603101   18.272725
Au   12.279422   17.031325   12.729335
Au   12.223079   17.108875   15.547636
Au   12.273565   17.039387   18.366999
Au   10.090816   15.338173   12.811937
Au   10.022303   15.360434   15.545178
Au   10.077976   15.342345   18.272725
Au   10.866226   12.681954   12.729335
Au   10.775061   12.652333   15.547636
Au   10.856748   12.678874   18.366999
Au   11.800193   10.077253   12.811937
Au   11.757849   10.018972   15.545178
Au   11.792257   10.066331   18.272725
Au   14.566022   9.993894   12.729335
Au   14.566022   9.898038   15.547636
Au   14.566022   9.983929   18.366999
Au   17.331852   10.077253   12.811937
Au   17.374195   10.018972   15.545178
Au   17.339787   10.066331   18.272725
Au   18.265819   12.681954   12.729335
Au   18.356983   12.652333   15.547636
Au   18.275296   12.678874   18.366999
