54
Generated with con2xyz
Au   12.882338   14.781429   18.260642
Au   13.591785   12.118229   18.003979
Au   12.676043   16.388659   15.984663
Au   12.092812   19.117233   16.429552
Au   13.041459   17.594519   18.445911
Au   15.596671   13.735766   17.056382
Au   17.542715   13.339489   12.496847
Au   17.715986   11.459892   14.549395
Au   15.359717   12.801052   14.125467
Au   12.802694   16.444274   13.152006
Au   13.065106   13.808236   13.161693
Au   15.226471   14.900181   12.039339
Au   13.149412   13.590846   15.786238
Au   15.302688   16.085993   18.449043
Au   17.664485   14.081820   15.181875
Au   14.976193   15.467915   14.763837
Au   15.565453   11.144905   16.284670
Au   13.666073   16.085644   20.595427
Au   16.023924   11.576299   18.929284
Au   14.751222   13.723184   19.968575
Au   16.329718   15.828195   20.878061
Au   15.427921   17.044601   10.316494
Au   13.288368   18.355036   11.243258
Au   13.005505   19.173710   13.826977
Au   15.258463   17.683972   12.994285
Au   10.890494   17.710125   14.516984
Au   14.169100   20.019970   18.052507
Au   14.754909   18.303324   15.921038
Au   13.835445   21.061800   15.682111
Au   15.495791   20.432253   13.722790
Au   17.533719   15.347239   10.595704
Au   20.028894   12.636655   15.509311
Au   17.511077   16.011096   13.215398
Au   19.952433   14.379906   13.480184
Au   19.847047   16.332958   11.660117
Au   17.907073   20.485240   12.553762
Au   16.999382   16.535543   16.414139
Au   19.307508   14.616668   17.344627
Au   19.421265   16.579407   15.155309
Au   17.989351   12.111609   17.195063
Au   17.368292   14.009634   19.199766
Au   16.381109   18.589506   18.340548
Au   17.748103   18.053625   11.350076
Au   15.612264   19.689803   11.113868
Au   19.861162   18.646377   13.121503
Au   17.405744   18.547345   14.499111
Au   19.118075   20.539477   15.004786
Au   18.756530   18.728505   17.007984
Au   21.095497   18.688920   15.532619
Au   16.493459   20.424517   16.326132
Au   21.662349   16.648319   13.666966
Au   20.709437   16.907252   17.551138
Au   18.201221   16.626996   18.906208
Au   21.500553   14.928018   15.743138
