54
Generated with con2xyz
Au   12.305231   14.280535   16.772989
Au   13.398297   11.765519   16.825696
Au   12.407831   15.808031   14.423529
Au   12.772348   19.160449   16.776643
Au   11.271187   16.850904   16.711209
Au   15.085165   13.889319   16.810873
Au   18.126020   11.664717   13.768841
Au   17.836062   10.311190   16.084342
Au   15.665662   11.621195   15.192228
Au   13.840710   14.906325   12.185127
Au   15.918267   13.185471   12.907669
Au   16.231787   14.838112   10.749539
Au   13.543622   13.277670   14.487375
Au   13.959746   16.503917   16.778894
Au   17.468337   13.816295   15.306978
Au   15.257151   15.476341   14.447544
Au   15.541251   10.321731   17.547582
Au   12.712058   17.497744   18.972689
Au   14.830154   12.412381   19.072166
Au   13.761406   14.936264   19.055414
Au   15.446214   17.173282   19.183015
Au   15.471273   17.138774   12.045635
Au   12.743122   17.455075   12.241214
Au   13.143521   20.611650   14.461381
Au   14.189064   18.097742   14.455669
Au   11.479821   18.408019   14.467924
Au   14.348442   19.694017   18.967709
Au   15.665097   18.760742   16.766675
Au   14.572933   21.252171   16.701102
Au   15.908020   20.453815   14.405849
Au   18.322647   13.271862   11.545363
Au   19.616524   12.335542   16.096107
Au   17.659552   15.477452   12.989688
Au   19.905299   13.797424   13.750687
Au   19.978859   15.467148   11.557066
Au   17.173265   19.321881   12.187936
Au   16.798948   16.168986   16.857565
Au   18.981610   14.562734   17.697605
Au   19.132129   16.137889   15.291895
Au   17.294400   12.356740   17.740994
Au   16.530458   14.621777   19.162335
Au   17.065250   19.394909   19.010801
Au   17.895848   17.040726   10.759799
Au   14.411427   19.665814   12.237469
Au   19.409351   17.815040   12.914726
Au   17.005976   17.812300   14.459277
Au   18.656766   19.987364   14.506468
Au   18.546795   18.520637   16.856000
Au   20.764798   18.329019   15.246526
Au   17.284630   20.954760   16.732912
Au   21.409279   16.110435   13.791920
Au   20.567215   16.784297   17.525589
Au   18.238534   16.882231   19.063501
Au   21.213856   14.570943   16.062010
