54
Generated with con2xyz
Au   12.005595   15.033181   17.588188
Au   12.908666   12.786647   18.721429
Au   11.874703   15.032055   14.794766
Au   12.568259   19.317515   16.060939
Au   10.928638   17.157888   16.292588
Au   14.872404   14.486517   17.500651
Au   17.531288   12.640140   13.282800
Au   16.947902   13.508781   15.884793
Au   15.149160   11.931505   14.512953
Au   13.203784   15.474934   12.383802
Au   12.951441   12.937553   13.305303
Au   15.340159   13.682484   12.156819
Au   12.990887   12.829870   16.026427
Au   13.692116   16.774660   16.202316
Au   19.453711   13.855245   14.843053
Au   14.684960   14.630866   14.664744
Au   15.149099   11.791689   17.348257
Au   12.473962   17.621528   18.486225
Au   15.191520   12.948453   19.941734
Au   13.695050   15.315428   19.742386
Au   15.199607   17.341316   18.537887
Au   15.655106   16.259452   11.290675
Au   13.459248   18.024959   11.547237
Au   13.884235   19.791335   13.680233
Au   14.969225   17.255561   13.761320
Au   12.157750   17.617478   13.896044
Au   14.035662   19.876481   18.206801
Au   15.549063   18.954151   16.064888
Au   14.405880   21.368223   15.886088
Au   16.368369   20.879269   13.910073
Au   17.883236   14.520878   11.253871
Au   21.979982   16.779030   14.382729
Au   17.246330   15.452214   13.675517
Au   19.975081   13.085288   12.276445
Au   19.996221   15.719470   12.680499
Au   18.338580   20.125772   12.080414
Au   16.697006   16.394990   16.332866
Au   18.791532   14.978626   17.502346
Au   19.363678   16.627447   15.268029
Au   17.386352   12.829172   18.456227
Au   16.605207   15.168695   19.533149
Au   16.652128   19.686501   18.608362
Au   18.113498   17.361180   11.563499
Au   15.902803   19.055807   11.811007
Au   20.172551   18.468726   13.156978
Au   17.508576   18.347601   14.072588
Au   19.054863   20.608350   14.633878
Au   18.427628   18.900607   16.687002
Au   20.980448   18.923102   15.692451
Au   17.048676   21.280641   16.473575
Au   21.380487   15.046863   16.355625
Au   20.476326   17.192845   17.702881
Au   18.001732   17.304792   18.809791
Au   21.910847   14.167549   13.832109
