54
Generated with con2xyz
Au   12.561552   14.079736   17.195996
Au   13.667231   11.720677   17.827971
Au   12.309372   14.623030   14.493927
Au   12.930332   18.596846   16.609215
Au   11.373715   16.378055   16.463269
Au   15.485504   13.814276   17.020385
Au   17.867033   12.873282   12.050970
Au   20.035339   13.749612   10.794563
Au   15.705005   11.809368   13.412785
Au   13.409991   15.615553   12.163147
Au   13.379535   12.923202   12.580996
Au   15.570924   14.071101   11.411790
Au   13.649667   12.304800   15.219986
Au   14.131560   16.129699   16.092380
Au   17.617905   13.158575   14.848242
Au   15.162642   14.374454   14.144548
Au   15.998574   11.305373   16.205981
Au   13.123941   16.491297   18.577715
Au   15.985565   11.723826   18.962483
Au   14.176796   14.016879   19.364658
Au   15.896144   16.354717   18.380489
Au   15.702585   16.795917   11.031533
Au   13.500305   18.304948   11.841487
Au   14.013791   19.596923   14.258148
Au   15.205217   17.140478   13.711191
Au   12.397656   17.355476   14.140923
Au   14.632833   18.818584   18.670119
Au   15.847615   18.379145   16.248325
Au   14.634453   20.745496   16.687549
Au   16.481708   20.700152   14.570297
Au   17.911795   15.254443   10.379293
Au   19.866838   14.126668   16.158502
Au   17.578779   15.519246   13.025073
Au   19.942911   13.907924   13.450747
Au   20.108349   16.160824   11.901751
Au   18.383030   20.446152   12.558439
Au   17.124347   15.771930   15.776975
Au   18.595476   15.461923   18.176062
Au   19.832732   16.405963   14.676721
Au   17.995754   12.774927   17.563243
Au   16.829069   14.111828   19.753227
Au   17.318207   18.741802   19.061149
Au   18.167775   17.935577   11.372705
Au   15.932102   19.386895   12.169594
Au   20.289249   18.657943   13.160796
Au   17.733178   18.216361   14.089162
Au   19.190965   20.368733   15.171132
Au   18.614732   17.928317   16.752019
Au   19.869550   20.004365   17.845135
Au   17.313474   20.620283   17.156224
Au   21.129436   18.646570   15.797747
Au   19.823848   17.713600   19.268949
Au   17.706727   16.542861   20.492126
Au   20.976379   16.397825   17.209897
