54
Generated with con2xyz
Au   16.473604   15.361176   9.874337
Au   17.275015   16.233209   12.502838
Au   17.280202   15.935057   15.881803
Au   17.370496   15.816485   18.657891
Au   18.882340   16.682721   10.094385
Au   21.593343   17.553502   15.499532
Au   19.338288   19.155317   15.944430
Au   16.304826   20.450074   11.524339
Au   17.068280   18.388988   14.499259
Au   17.220276   18.237473   17.462467
Au   14.099400   16.769704   9.798481
Au   14.885211   16.639251   14.640688
Au   14.994254   16.492347   17.499618
Au   16.429125   12.652093   9.404188
Au   15.854359   13.981072   14.353652
Au   15.905900   13.908868   17.256490
Au   17.273607   10.897398   11.261537
Au   18.674584   14.048387   14.369193
Au   18.750906   13.986214   17.265593
Au   21.954588   15.722571   13.497068
Au   19.576300   16.705357   17.175694
Au   18.424420   18.699288   11.986331
Au   20.575510   19.330426   13.614315
Au   13.526635   20.512002   12.125144
Au   17.044543   20.629201   16.197956
Au   14.269283   19.443841   9.886995
Au   14.835869   18.955662   16.274751
Au   12.476255   17.947462   11.608717
Au   12.678081   17.170277   16.242897
Au   14.707893   15.227318   12.083786
Au   13.522470   14.612909   15.974937
Au   14.772944   12.390580   11.533627
Au   13.261367   13.403932   13.561360
Au   17.307245   13.495105   11.927917
Au   14.497531   12.093717   15.720605
Au   19.705191   12.195447   11.246819
Au   20.098187   12.147164   15.821943
Au   18.780054   13.988022   9.521172
Au   19.444105   16.816102   14.138940
Au   20.950867   14.800837   15.774508
Au   20.880361   17.449550   11.759438
Au   18.175304   20.748443   13.752648
Au   15.369624   20.536053   14.067162
Au   16.607468   18.140491   9.959533
Au   13.082121   18.789279   14.144058
Au   15.125798   18.135986   12.278757
Au   12.405749   16.050827   13.696760
Au   14.062855   14.060438   9.573163
Au   12.210966   15.246546   11.137620
Au   15.997239   11.275097   13.628317
Au   17.326584   12.034494   15.884821
Au   18.738358   11.376879   13.579769
Au   21.090761   13.059844   13.506534
Au   19.823132   14.902294   11.924743
