54
Generated with con2xyz
Au   16.808892   15.085189   9.784195
Au   18.490586   15.690207   12.224809
Au   16.308720   16.944671   16.098710
Au   16.442007   17.033782   18.897206
Au   19.536481   15.306403   9.660501
Au   21.144538   17.269233   16.143434
Au   18.809160   17.132831   17.536793
Au   16.555092   20.183180   11.921129
Au   16.884487   19.333190   14.545653
Au   17.026890   19.271433   17.484139
Au   14.440133   16.107352   10.928549
Au   14.545041   15.054184   14.713863
Au   14.403428   18.250500   17.521758
Au   16.418657   11.753075   9.648284
Au   17.322727   14.688935   14.764080
Au   14.660318   15.415220   17.702012
Au   18.934401   10.819726   9.573627
Au   19.515321   13.353331   13.774865
Au   17.394332   14.766468   17.607031
Au   20.784531   16.979008   11.487166
Au   19.758621   14.886880   16.175971
Au   18.641072   18.499009   12.246131
Au   19.471911   19.418247   16.062286
Au   14.429480   20.772400   13.550565
Au   17.762555   21.501935   16.136735
Au   14.328542   18.628816   11.939994
Au   15.125120   20.653160   16.143679
Au   12.891404   16.601697   13.165205
Au   12.702393   16.458660   16.108935
Au   15.966657   14.204469   12.300725
Au   12.958394   13.661634   16.634449
Au   14.902145   11.712773   11.902359
Au   13.856008   12.428563   14.359216
Au   18.348261   13.140817   11.129130
Au   15.614310   13.066204   16.416198
Au   20.683001   12.797737   9.450830
Au   20.293340   11.426693   11.869365
Au   18.279748   13.232387   8.362763
Au   18.739731   17.119855   14.691355
Au   21.027675   15.782586   13.886391
Au   20.887309   18.595437   13.779321
Au   19.048016   20.763086   13.733056
Au   16.687882   22.087005   13.829784
Au   16.629011   17.696207   10.627576
Au   14.204380   18.356957   14.792694
Au   16.111206   16.931184   13.191106
Au   11.787899   14.484777   14.447283
Au   14.523130   13.584677   9.915549
Au   13.191869   13.975856   12.227400
Au   16.641115   12.069800   14.019684
Au   18.334419   12.516567   16.159519
Au   19.002688   10.756745   14.152462
Au   17.548561   10.602906   11.892293
Au   21.018849   14.223361   11.664993
