54
Generated with con2xyz
Au   12.640880   16.349893   13.186416
Au   13.703865   18.839716   13.792940
Au   14.595941   21.684255   16.599516
Au   13.256051   11.977471   15.035572
Au   13.195622   15.252852   10.733166
Au   15.139577   11.569205   12.966216
Au   15.708072   15.871039   9.873177
Au   13.171293   13.579281   12.875523
Au   14.832423   16.585138   15.300295
Au   14.632023   9.826275   14.870152
Au   15.244647   13.764695   14.885643
Au   12.734927   14.712534   15.334040
Au   15.265580   20.153224   11.870346
Au   14.189158   17.728076   11.297792
Au   15.842454   20.568035   14.493096
Au   16.305352   18.021391   13.257249
Au   16.753619   18.354971   10.419780
Au   15.149496   13.338132   10.864677
Au   12.301672   17.374788   15.641285
Au   14.300101   19.053633   16.437461
Au   17.018485   18.520427   15.923630
Au   17.993096   19.970590   12.214072
Au   17.183073   22.037213   16.388733
Au   18.854485   20.176459   17.383697
Au   18.684073   20.523223   14.714700
Au   16.677325   11.409497   15.209359
Au   17.716679   13.979849   10.032421
Au   17.142251   11.488916   10.985103
Au   17.285865   13.408803   12.934509
Au   18.476268   10.874021   13.196929
Au   19.626536   12.733748   11.528520
Au   17.156779   13.591970   16.804211
Au   16.978989   16.184827   17.342329
Au   19.114765   12.676633   15.103527
Au   18.270467   16.496863   9.117099
Au   20.168769   15.279582   10.627343
Au   17.819257   16.104908   11.849473
Au   19.079917   17.770351   13.979687
Au   19.751633   14.873865   13.495005
Au   21.433160   16.880287   12.468763
Au   17.393170   15.641832   14.752421
Au   19.316796   17.560388   17.014362
Au   15.220641   15.471329   12.665708
Au   21.288668   16.598111   15.312032
Au   16.230218   20.147384   17.988523
Au   19.506618   18.090537   10.960127
Au   20.740791   19.602110   12.935110
Au   22.903364   18.399191   14.096045
Au   20.908727   19.316651   15.656974
Au   21.092653   11.796151   13.523455
Au   22.037057   14.041035   12.308087
Au   23.393857   15.715763   13.911949
Au   21.739406   13.878858   15.077761
Au   19.472735   14.933331   16.530041
