54
Generated with con2xyz
Au   16.422313   15.152437   9.884575
Au   17.271771   16.155606   12.458669
Au   17.278752   16.044975   15.835527
Au   17.382127   16.074801   18.613793
Au   18.861450   16.430481   10.020859
Au   21.629722   17.561854   15.351857
Au   19.599501   16.838947   17.074477
Au   16.381282   20.341979   11.235048
Au   17.119218   18.428526   14.330951
Au   17.284285   18.433162   17.291833
Au   14.074532   16.604810   9.734344
Au   14.892937   16.741706   14.577197
Au   15.020260   16.747575   17.437734
Au   16.311583   12.425890   9.577506
Au   15.801763   14.040396   14.406921
Au   15.864748   14.129307   17.312294
Au   17.180291   10.765736   11.504836
Au   18.633558   14.049442   14.433348
Au   18.720267   14.146964   17.322415
Au   20.886556   17.260108   11.625735
Au   20.933429   14.834896   15.781855
Au   18.454840   18.567056   11.791812
Au   19.412744   19.226851   15.719768
Au   13.609531   20.496981   11.851809
Au   17.153163   20.759051   15.896706
Au   14.311265   19.276135   9.678914
Au   14.911326   19.147093   16.081216
Au   12.508403   17.925679   11.491800
Au   12.714477   17.421159   16.167846
Au   14.673365   15.217980   12.104100
Au   13.494658   14.825658   16.020005
Au   14.689754   12.350835   11.750749
Au   13.155738   13.531262   13.663568
Au   17.257935   13.390979   12.031639
Au   14.410208   12.271541   15.862397
Au   19.634908   12.012988   11.416165
Au   20.028662   12.205290   15.987614
Au   18.698945   13.710039   9.601185
Au   19.458577   16.786463   14.048054
Au   21.945849   15.618936   13.453863
Au   20.628432   19.248916   13.370668
Au   18.264066   20.721153   13.438112
Au   15.466343   20.586392   13.779288
Au   16.617214   17.926148   9.809819
Au   13.140012   18.909843   13.972700
Au   15.166947   18.105688   12.139144
Au   12.375929   16.186104   13.695421
Au   13.976269   13.890760   9.687948
Au   12.164889   15.198996   11.202684
Au   15.926812   11.276106   13.855271
Au   17.251277   12.157528   16.053579
Au   18.663784   11.333837   13.792013
Au   21.034902   12.975297   13.625376
Au   19.793822   14.745550   11.941216
