54
Generated with con2xyz
Au   16.505101   15.351913   9.397769
Au   18.197826   16.149162   11.757668
Au   16.397773   16.747211   16.080226
Au   17.027142   16.794567   18.817195
Au   18.632767   16.985066   9.056031
Au   20.508917   19.050213   15.355702
Au   18.751480   17.925608   17.070468
Au   16.839454   19.799358   12.373140
Au   15.605514   19.076852   14.762357
Au   16.266905   19.144904   17.579709
Au   14.246620   16.338830   10.655751
Au   14.910706   14.699198   14.681170
Au   14.464348   17.071907   18.056543
Au   16.871147   12.627139   10.014980
Au   17.744925   15.037984   14.365694
Au   15.863139   14.591245   17.730442
Au   14.719502   12.530775   16.361476
Au   20.896797   12.166255   12.957040
Au   18.522724   15.166127   17.146294
Au   20.726727   16.377244   10.610803
Au   20.179383   16.326922   15.322612
Au   19.056326   18.698687   11.100098
Au   19.352648   20.324757   13.306462
Au   14.648994   21.252677   13.430082
Au   18.046311   20.231259   15.760188
Au   14.271459   18.965682   11.882803
Au   13.735838   19.485848   16.761800
Au   12.821871   16.879034   12.896945
Au   13.599887   17.060442   15.478883
Au   15.909141   14.384297   11.975268
Au   13.300261   14.772211   16.984417
Au   14.711197   11.898868   11.642340
Au   13.397890   12.424729   14.040349
Au   18.449879   13.251461   12.359301
Au   17.429351   12.870592   16.232846
Au   19.532989   11.677865   10.445972
Au   19.758380   9.852516   12.336654
Au   19.028956   14.342660   9.739377
Au   18.200906   17.912510   14.100510
Au   20.535883   14.998273   12.968551
Au   20.727670   17.776019   12.987380
Au   17.159584   21.954608   13.953095
Au   15.532482   21.422844   16.048193
Au   16.453253   17.920551   10.429783
Au   12.888575   19.362691   14.176693
Au   15.702514   16.920346   13.048763
Au   12.162020   14.801849   14.564252
Au   14.363695   13.735954   9.713942
Au   13.141924   14.244306   12.092066
Au   16.152023   12.293448   13.919320
Au   19.879345   13.528461   15.193395
Au   18.675686   11.239417   14.319841
Au   17.296733   10.750345   11.920591
Au   21.366575   13.666515   10.785545
