54
Generated with con2xyz
Au   16.748477   13.620521   11.461887
Au   16.510696   15.055376   13.777575
Au   16.152256   14.109864   17.667859
Au   15.200588   12.835530   20.056169
Au   16.695092   17.388093   12.390792
Au   18.567950   13.010583   13.422222
Au   18.147238   15.998137   18.377042
Au   15.891992   15.519925   20.061620
Au   16.488783   18.870552   14.698352
Au   16.312405   16.589569   16.180306
Au   14.129251   16.105594   17.897813
Au   13.200500   14.797553   20.200665
Au   14.453085   17.061623   13.973923
Au   14.294525   14.644180   15.451705
Au   13.398596   13.355399   17.839917
Au   12.535632   12.111696   20.089569
Au   14.789429   15.549329   11.716666
Au   13.624812   11.892946   15.428918
Au   15.406036   11.381206   17.554796
Au   14.467527   10.188158   19.823236
Au   13.850116   10.451132   13.126773
Au   16.355576   12.598032   15.180844
Au   18.216319   12.051729   17.386488
Au   17.102634   10.888084   19.622736
Au   18.644602   15.465908   12.134933
Au   20.371898   14.968965   14.189455
Au   16.168488   17.924682   18.688755
Au   18.550637   17.030640   14.406436
Au   20.180743   16.383635   16.541075
Au   13.888602   17.450668   20.242900
Au   18.284971   18.352612   16.836958
Au   14.125879   19.676354   18.763305
Au   12.158170   17.947131   18.177329
Au   16.235041   20.086427   17.093637
Au   12.289794   16.557346   15.761334
Au   11.443707   15.300356   18.099039
Au   14.205069   18.490232   16.347745
Au   11.534710   13.887830   15.675904
Au   10.795782   12.608426   18.006381
Au   12.590092   15.071566   13.363190
Au   11.004895   11.178977   15.680057
Au   12.619107   10.550998   17.818958
Au   11.886270   12.384982   13.393876
Au   12.962985   9.251494   15.411382
Au   14.689897   8.758654   17.474170
Au   14.505059   13.115015   12.960245
Au   15.655354   9.822467   15.103811
Au   17.319327   9.459213   17.261016
Au   16.514027   11.208212   12.835567
Au   18.304937   10.697702   14.968932
Au   17.893331   13.546071   19.692036
Au   20.211503   12.630215   15.588810
Au   18.286632   14.545139   15.893876
Au   20.015478   14.048413   17.950691
