54
Generated with con2xyz
Au   12.831668   16.513289   13.519867
Au   13.912297   19.074070   13.929474
Au   14.943059   19.274874   16.478716
Au   13.649004   12.370582   15.773880
Au   13.212059   15.169457   11.142197
Au   15.292711   11.949991   13.332775
Au   15.537699   15.888606   9.938457
Au   13.299296   13.766937   13.463611
Au   15.095592   16.785781   15.246076
Au   14.475356   14.072416   17.790652
Au   15.697502   13.983940   15.253514
Au   12.969752   15.083964   15.867081
Au   15.243062   20.267120   11.917784
Au   14.161422   17.745701   11.471428
Au   16.358844   20.468023   14.458235
Au   16.414372   18.060635   13.132395
Au   16.568520   18.478738   10.333654
Au   15.295630   13.336239   11.007887
Au   12.611402   17.817405   15.940415
Au   14.206212   16.847744   17.846068
Au   17.608082   18.101699   15.797041
Au   17.944577   20.166914   12.113105
Au   17.511668   20.465544   16.953328
Au   18.907653   17.190311   18.168586
Au   19.105593   20.340683   14.600615
Au   16.111960   11.266014   15.806395
Au   17.657902   14.079921   9.790080
Au   17.486610   11.640142   11.006656
Au   17.593498   13.583832   12.773143
Au   17.726288   10.875501   13.579264
Au   19.890690   13.138489   10.961899
Au   16.902416   13.021415   17.700272
Au   16.663971   15.763904   17.357274
Au   18.340392   12.843057   15.414266
Au   17.903090   16.660468   8.827060
Au   20.092692   15.709961   10.071063
Au   17.821817   16.179883   11.573318
Au   19.202094   17.821241   13.392144
Au   20.075742   15.044444   12.965437
Au   21.510141   17.386437   11.926489
Au   17.896987   15.581575   14.716448
Au   19.117960   14.618026   17.364045
Au   15.391512   15.442193   12.785718
Au   20.231207   16.654367   15.799805
Au   16.516317   18.341473   18.387056
Au   19.319288   18.340322   10.537461
Au   20.644046   19.953929   12.332773
Au   21.517755   18.682994   14.524314
Au   19.986051   19.214332   16.818620
Au   20.092701   12.188539   13.431825
Au   22.273000   14.852442   11.335801
Au   22.495643   13.367841   13.433059
Au   20.888998   14.000820   15.427050
Au   22.350624   16.003065   14.088650
