54
Generated with con2xyz
Au   14.504908   16.139119   17.227792
Au   13.448296   18.423209   18.403044
Au   16.691749   15.969492   15.129990
Au   16.985064   13.669635   13.848113
Au   19.397079   14.625154   14.784264
Au   14.528713   20.832467   19.506545
Au   13.717840   18.787504   21.040483
Au   15.995198   18.194965   19.419993
Au   15.517548   14.027040   18.607531
Au   15.653002   15.666407   12.534345
Au   13.903418   15.796566   14.552138
Au   13.669994   20.402091   14.137533
Au   16.109517   18.290171   16.542910
Au   13.301375   18.172198   15.715160
Au   14.216022   16.241839   19.997096
Au   15.202996   22.883976   17.850875
Au   16.295589   20.062739   21.401837
Au   16.865422   20.581918   17.941620
Au   15.622214   17.439466   22.163620
Au   16.808597   22.342850   19.950724
Au   16.666890   22.640507   13.266400
Au   14.290795   20.516494   16.773019
Au   14.733720   22.681843   15.138405
Au   17.250429   22.807060   16.135212
Au   15.069807   13.797100   15.861951
Au   16.780221   18.027144   11.530076
Au   19.453362   18.190770   11.595279
Au   17.279440   15.978159   17.944108
Au   19.928210   14.686754   17.558600
Au   20.593683   16.972633   13.713998
Au   18.103146   13.640506   19.269615
Au   16.761414   15.560804   20.634418
Au   19.403284   15.995042   19.931222
Au   18.126017   20.475338   12.292447
Au   15.191669   18.108703   13.759868
Au   18.300519   15.860233   12.603529
Au   15.475874   20.399214   12.191627
Au   18.914663   19.845566   16.130160
Au   19.216416   16.996539   16.158672
Au   20.427911   19.749861   13.677262
Au   18.654933   18.345620   18.533527
Au   18.784004   20.526595   20.151355
Au   20.625539   18.450660   20.489701
Au   20.916672   19.937073   18.246441
Au   18.110578   18.011496   21.312708
Au   16.438947   20.477259   14.832345
Au   19.073986   22.014681   14.352988
Au   21.160481   21.318039   15.922313
Au   19.219886   22.010836   17.838969
Au   17.604516   13.559282   16.577888
Au   18.011996   18.257936   13.977720
Au   21.517423   18.577025   15.879940
Au   21.706263   15.798605   15.852286
Au   21.220554   17.119269   18.191537
