54
Generated with con2xyz
Au   13.124762   13.290395   17.122194
Au   16.680507   10.290185   16.671951
Au   11.841116   14.800239   15.329188
Au   12.128395   19.302047   15.885918
Au   10.597325   16.962504   16.373370
Au   14.870677   15.235584   18.131633
Au   20.230410   13.429758   14.354081
Au   18.641936   11.206852   15.066798
Au   17.944433   12.829984   12.928883
Au   13.149839   15.085478   12.948040
Au   13.239311   12.610512   14.350880
Au   15.259173   13.465291   12.482870
Au   14.082021   10.915820   16.302463
Au   13.427251   16.846616   16.318281
Au   17.692587   13.768970   15.650134
Au   14.859171   14.525637   15.274486
Au   15.920782   11.872236   14.606576
Au   11.674172   18.289952   18.368198
Au   16.860929   17.263690   18.909885
Au   12.070966   15.578957   18.209645
Au   14.241833   17.820850   18.795921
Au   15.232660   16.025700   11.313016
Au   13.137229   17.628388   11.671294
Au   13.528250   19.556398   13.554182
Au   14.782363   17.117643   13.910744
Au   11.869564   17.295498   14.002338
Au   13.494910   20.328474   17.968222
Au   15.156990   18.993904   16.107816
Au   13.961921   21.384481   15.529959
Au   17.863937   19.014384   16.907847
Au   17.344563   14.452321   10.872141
Au   20.905355   11.811692   16.408653
Au   16.959885   15.407512   13.475259
Au   19.525792   15.163730   12.320093
Au   18.179083   19.787800   12.214412
Au   15.642923   18.771431   11.863364
Au   16.626452   16.456579   16.306402
Au   18.501075   12.043601   17.669860
Au   19.240982   16.038709   15.055079
Au   15.796048   12.718736   17.412311
Au   17.598842   14.677497   18.294640
Au   16.022404   19.883154   18.682036
Au   17.804126   17.152754   11.456611
Au   16.056557   20.601650   13.875202
Au   18.612887   20.590238   14.769971
Au   17.438885   18.149078   14.212095
Au   19.964113   17.827453   13.000360
Au   20.208017   18.548750   15.589762
Au   21.672891   16.442653   16.466472
Au   16.510313   21.364165   16.450727
Au   21.689219   15.788758   13.876583
Au   20.106255   14.260699   17.149265
Au   19.276283   16.833194   17.721842
Au   22.429054   13.975860   15.772724
