54
Generated with con2xyz
Au   10.691484   14.335326   16.330805
Au   11.483433   16.600109   14.968232
Au   12.328019   18.845448   16.425434
Au   14.466753   12.034514   18.084262
Au   10.918709   14.267790   13.611096
Au   14.734803   11.793462   15.336567
Au   13.324657   14.112490   12.277727
Au   12.235648   12.055101   16.504272
Au   13.872747   16.553520   16.619135
Au   15.171308   14.295769   19.503472
Au   15.455554   14.216291   16.791779
Au   12.827435   14.253658   18.062810
Au   13.452683   15.695658   10.035488
Au   11.860366   16.459829   12.192419
Au   12.508587   18.811775   13.645387
Au   14.088842   16.516884   13.768470
Au   14.024310   18.020447   11.363485
Au   12.473501   11.982301   13.785989
Au   11.396102   16.584108   17.726425
Au   13.646490   16.564377   19.320982
Au   14.874277   18.832451   15.239565
Au   14.704882   20.298393   12.806101
Au   13.310262   21.044924   15.113703
Au   15.547612   21.020577   16.696614
Au   15.539567   22.334784   14.357861
Au   16.951024   11.942493   16.956689
Au   15.008308   13.422246   10.221579
Au   14.969396   11.897877   12.554985
Au   15.721205   14.108318   13.973363
Au   17.280059   11.877295   14.190437
Au   17.282929   13.236900   11.745585
Au   17.662146   14.207598   18.381581
Au   16.222164   16.555760   18.322801
Au   18.117987   14.067637   15.666904
Au   15.660297   17.135769   9.318289
Au   17.207683   14.868742   9.504815
Au   15.682075   15.677596   11.612725
Au   16.430095   18.047088   13.024077
Au   17.977214   15.654034   13.233614
Au   18.015640   17.187253   10.763991
Au   16.490627   16.492816   15.466993
Au   17.166193   18.763661   16.938345
Au   13.153238   14.236710   15.161624
Au   18.801282   17.968309   14.735984
Au   14.599594   18.823954   18.033867
Au   16.367948   19.422030   10.672006
Au   17.031352   21.519886   12.233136
Au   18.690164   19.393980   12.309721
Au   17.247733   20.267830   14.601415
Au   19.482330   13.378755   13.382492
Au   19.438084   14.843920   11.079108
Au   20.167893   17.084299   12.497988
Au   20.210230   15.626606   14.809074
Au   18.716939   16.393457   17.041458
