54
Generated with con2xyz
Au   16.173217   14.903145   8.970092
Au   17.513532   16.283649   12.554996
Au   17.537831   15.454240   15.911086
Au   17.802113   15.849561   18.612402
Au   18.713311   15.261149   10.085084
Au   21.901731   17.954644   15.304263
Au   19.956456   16.603407   16.948404
Au   16.328004   21.012409   11.536990
Au   17.715724   18.464781   14.374300
Au   17.583500   18.095242   17.130602
Au   14.175986   16.821009   9.194684
Au   15.423796   16.968217   14.878295
Au   15.337763   16.648868   17.660698
Au   15.585175   12.244235   9.444316
Au   15.582138   14.324934   13.979458
Au   15.933439   13.968700   17.646751
Au   15.100963   10.390556   11.341862
Au   17.405276   12.584050   15.816890
Au   19.904768   13.971383   15.951161
Au   20.022418   17.123657   11.515863
Au   22.130282   15.365038   15.519088
Au   18.187301   19.091611   11.615110
Au   19.758889   19.308896   16.054051
Au   13.740747   20.478438   12.003889
Au   17.437445   20.663886   16.110759
Au   14.912196   19.296931   9.924241
Au   15.143113   19.209744   16.420587
Au   13.049733   17.823078   11.497932
Au   13.071569   17.449454   16.368673
Au   14.903174   15.737381   11.581080
Au   13.843270   14.882263   16.134156
Au   14.186952   12.933494   11.740415
Au   12.828791   13.510701   13.990366
Au   17.586059   11.165817   10.950426
Au   14.712060   12.322246   15.662935
Au   21.337700   14.911216   10.901650
Au   18.497781   13.391624   18.120700
Au   16.848892   13.727980   11.372850
Au   19.764581   16.379773   14.259605
Au   22.203784   16.500138   13.013150
Au   20.313513   19.062325   13.407921
Au   18.288557   20.990193   13.559322
Au   15.614267   20.629944   14.111044
Au   16.792688   17.298277   10.052602
Au   13.424313   18.930229   14.165940
Au   15.593258   18.400119   12.422685
Au   13.009195   16.233040   13.809728
Au   13.642792   14.192065   9.387844
Au   12.303079   15.017777   11.545393
Au   13.747364   10.979738   13.574303
Au   16.353433   11.733520   13.357664
Au   19.562161   12.977729   11.316795
Au   21.130152   14.012309   13.394073
Au   18.404344   13.858067   13.637524
