54
Generated with con2xyz
Au   16.830350   13.559968   11.500115
Au   16.588840   15.042419   13.798464
Au   16.195823   14.135416   17.689162
Au   15.222645   12.829326   20.081566
Au   16.832323   17.249010   12.247430
Au   18.622737   12.938394   13.476088
Au   18.208976   15.934976   18.401171
Au   15.935847   15.482356   20.124132
Au   16.551257   18.853722   14.428936
Au   16.495224   16.736562   16.229549
Au   14.248747   16.176424   17.870653
Au   13.245363   14.841271   20.186760
Au   14.556208   17.013630   13.908140
Au   14.394021   14.681747   15.472057
Au   13.453727   13.405581   17.845629
Au   12.555239   12.161520   20.097269
Au   14.867697   15.469098   11.679159
Au   13.654906   11.916899   15.453571
Au   15.421607   11.390610   17.592499
Au   14.460016   10.195695   19.854389
Au   13.874889   10.440202   13.159850
Au   16.391007   12.574408   15.211009
Au   18.227281   12.020979   17.429257
Au   17.104713   10.863209   19.668622
Au   18.776092   15.357739   12.157217
Au   20.448848   14.897977   14.253626
Au   16.298550   17.842690   18.852057
Au   18.609354   16.943196   14.396642
Au   20.200401   16.297208   16.549446
Au   13.928243   17.478378   20.226323
Au   17.354728   21.176027   15.084406
Au   14.325165   19.625450   18.658038
Au   12.266958   18.015688   18.099958
Au   16.561082   19.770258   17.011783
Au   12.378259   16.585026   15.717687
Au   11.536363   15.381917   18.075643
Au   14.299748   18.497352   16.224003
Au   11.604561   13.927036   15.673514
Au   10.840184   12.693284   18.013924
Au   12.671763   15.053336   13.355877
Au   11.021386   11.232312   15.700665
Au   12.626772   10.600459   17.841062
Au   11.930789   12.386791   13.402599
Au   12.952156   9.280623   15.444615
Au   14.666338   8.769454   17.513219
Au   14.573503   13.088119   12.995009
Au   15.657147   9.809163   15.150947
Au   17.305637   9.432120   17.318823
Au   16.556342   11.154291   12.878846
Au   18.319156   10.640053   15.028148
Au   17.922940   13.515907   19.725180
Au   20.241333   12.561089   15.648277
Au   18.314168   14.508188   15.920340
Au   20.063723   14.002310   17.978363
