54
Generated with con2xyz
Au   13.074214   13.763117   17.309186
Au   16.498823   10.578563   16.445367
Au   11.942968   14.586464   15.023148
Au   12.290202   19.047914   16.026459
Au   10.849315   16.662549   16.580529
Au   14.938678   15.273711   18.629545
Au   20.174884   13.615380   14.427901
Au   18.634400   11.278740   14.941512
Au   18.055479   12.971958   12.803437
Au   13.105563   15.095849   12.618087
Au   13.244877   12.563893   13.593239
Au   15.349966   13.560688   12.134067
Au   13.959128   11.579643   15.961329
Au   13.527351   16.465307   16.432590
Au   17.572068   13.728900   15.595568
Au   14.763950   14.256785   15.058925
Au   15.952305   11.843766   14.159934
Au   11.538459   18.436421   18.498293
Au   16.844720   17.256662   18.940880
Au   12.220485   15.877421   18.786621
Au   14.160365   17.885322   18.778158
Au   15.269394   16.178120   11.230580
Au   13.066769   17.692076   11.704233
Au   13.531486   19.531296   13.657521
Au   14.642588   17.001145   13.918977
Au   11.871703   17.162569   14.082641
Au   13.473263   20.387856   18.060304
Au   15.109912   18.879663   16.155327
Au   14.040085   21.327890   15.638869
Au   17.868887   18.742102   16.846373
Au   17.501308   14.691493   10.813813
Au   20.868341   11.838636   16.341480
Au   16.910429   15.430157   13.454657
Au   19.533041   15.443629   12.510064
Au   18.073054   19.924978   12.212833
Au   15.551236   18.846942   11.898309
Au   16.368038   16.285707   16.351055
Au   18.448264   12.054518   17.582991
Au   18.994975   16.180412   15.320194
Au   15.722768   12.905749   17.502994
Au   17.641954   14.700874   18.303233
Au   16.050546   19.848409   18.640606
Au   17.811166   17.318496   11.494318
Au   16.054280   20.684711   13.892940
Au   18.748318   20.316085   14.782435
Au   17.176764   18.147016   14.182458
Au   19.812697   18.097273   13.301444
Au   20.464577   18.409705   15.905373
Au   21.839568   16.355669   16.951746
Au   16.663041   21.203092   16.432912
Au   21.518955   16.124828   14.325281
Au   20.085234   14.271547   17.167431
Au   19.406868   16.827048   18.015503
Au   22.425690   14.009796   15.826338
