54
Generated with con2xyz
Au   13.188784   16.509966   13.129758
Au   14.308691   18.782844   14.093387
Au   15.052733   18.540292   16.734444
Au   12.626323   12.029252   14.172187
Au   13.683835   15.767655   10.429909
Au   14.627847   11.576897   12.213062
Au   16.370695   16.144158   9.853302
Au   13.148842   13.903777   12.286160
Au   18.707807   15.428672   17.297724
Au   13.986161   12.534429   16.511706
Au   15.094441   13.425227   14.268764
Au   12.683273   14.589631   15.028655
Au   15.903049   20.222716   12.323697
Au   14.815772   17.969113   11.395408
Au   16.538560   20.120617   14.973322
Au   15.259769   16.185047   15.181759
Au   17.478562   18.447938   10.767967
Au   15.243901   13.560886   10.417828
Au   12.851939   17.197227   15.829042
Au   13.919078   15.138458   17.345745
Au   17.626610   17.684651   16.065354
Au   18.508728   20.000194   12.892137
Au   17.299368   19.925657   17.608219
Au   19.942971   19.929440   18.159807
Au   19.228102   20.015741   15.570743
Au   14.702747   10.532847   14.738351
Au   17.926677   13.905098   10.004650
Au   16.841222   11.369411   10.530135
Au   17.299953   13.038560   12.654635
Au   16.853652   10.288210   13.011755
Au   19.378201   11.925936   11.230750
Au   16.388220   14.013614   16.717371
Au   16.186189   16.417972   18.031054
Au   16.992215   11.700412   15.365124
Au   19.123737   16.516171   9.437925
Au   21.783491   16.709635   10.029044
Au   16.823658   17.794729   13.371666
Au   19.576950   17.598225   14.048206
Au   18.495258   15.894235   11.950626
Au   22.748791   18.238396   12.063238
Au   17.841927   15.183381   14.581840
Au   20.401955   17.638512   16.810512
Au   15.672999   15.425505   12.409840
Au   20.679700   15.371746   15.304658
Au   18.440048   17.776062   18.739122
Au   20.127588   18.294743   11.389849
Au   21.187705   19.834715   13.559168
Au   22.283411   17.625352   14.702497
Au   21.833552   19.832269   16.200630
Au   19.200802   11.238598   13.852390
Au   20.512008   14.401956   10.554311
Au   21.398854   16.006664   12.621555
Au   19.948054   13.749468   13.210083
Au   19.181947   13.151928   15.846199
