54
Generated with con2xyz
Au   12.639457   12.212403   10.607102
Au   13.948354   13.056321   12.926675
Au   15.501441   14.306763   15.585018
Au   15.748902   14.684047   18.329030
Au   15.425481   12.030020   10.847069
Au   16.446888   10.117996   12.535202
Au   19.059133   14.417931   12.230777
Au   16.882559   16.716284   16.748947
Au   14.031125   14.480136   10.525289
Au   15.401907   15.486591   12.925413
Au   14.812792   17.204752   15.097086
Au   14.392459   16.989022   17.863664
Au   11.617237   14.370967   12.105623
Au   12.992749   15.193339   14.483111
Au   12.969851   14.676696   17.254050
Au   13.499585   15.056040   19.875284
Au   11.416641   11.758286   12.972397
Au   12.675214   12.518053   15.423357
Au   14.768998   12.185035   17.335862
Au   15.033262   12.691421   20.087565
Au   14.756910   8.458606   13.938075
Au   14.993948   11.147911   14.657902
Au   17.312661   11.952840   15.992628
Au   17.308974   12.474698   18.712992
Au   18.181863   11.941439   11.266967
Au   20.512007   12.232057   12.508962
Au   17.788641   15.482392   14.445172
Au   16.800055   14.388741   10.775561
Au   17.615104   16.819970   12.001985
Au   17.251473   18.102363   14.366582
Au   15.438816   16.761242   10.405621
Au   15.252956   18.292096   12.586929
Au   12.257339   17.443498   16.106736
Au   13.062903   16.650584   11.925624
Au   12.775343   18.518964   13.743028
Au   11.863247   16.947637   18.715401
Au   10.856149   16.564770   13.828002
Au   10.421768   15.601797   16.663974
Au   10.842030   14.626009   19.272915
Au   10.435296   13.883868   14.545523
Au   10.561421   12.936414   17.216323
Au   12.553019   12.536080   19.116277
Au   10.226840   11.138425   15.294059
Au   12.111375   10.558310   17.280277
Au   14.152329   10.272074   19.132110
Au   12.473694   9.770409   14.643204
Au   14.398765   9.222671   16.571307
Au   16.560219   10.061632   17.894075
Au   13.706413   10.309623   12.219575
Au   16.924346   9.288056   15.274490
Au   18.142682   14.355257   16.941682
Au   18.692375   10.826309   13.811753
Au   16.830999   12.983123   13.358836
Au   19.408594   13.277982   14.707312
