54
Generated with con2xyz
Au   12.048372   14.838084   17.114070
Au   13.435591   12.900848   18.625607
Au   12.145576   14.798391   14.376157
Au   12.545043   19.198482   15.464501
Au   10.959046   16.918558   15.618060
Au   15.017290   14.686279   17.471910
Au   18.138137   12.678911   13.217471
Au   18.090545   11.240323   15.566432
Au   15.731377   11.896858   14.355016
Au   13.672164   15.287805   12.127895
Au   13.412718   12.728798   13.164584
Au   15.769804   13.491678   12.046060
Au   13.385806   12.742833   15.903410
Au   13.713920   16.695299   15.862086
Au   17.432503   13.820556   15.868837
Au   14.976243   14.544229   14.575119
Au   15.720608   11.917181   17.079561
Au   12.133743   17.640072   17.897877
Au   16.008844   13.022652   19.498438
Au   13.150958   15.533411   19.410315
Au   15.686807   15.602024   20.161331
Au   16.078473   16.113910   11.052231
Au   14.019457   17.883922   11.217580
Au   14.182445   19.667877   13.285272
Au   15.285331   17.170112   13.584897
Au   12.450316   17.418317   13.384946
Au   14.832366   17.493374   18.317050
Au   15.505595   18.953993   15.858315
Au   13.654743   19.968811   17.732814
Au   16.952332   21.302156   16.362355
Au   18.106344   14.318156   10.953329
Au   20.059316   13.178818   15.061368
Au   17.426502   15.356578   13.468326
Au   20.023932   14.769773   12.761845
Au   18.651007   16.985386   11.575328
Au   16.716867   20.558907   13.799820
Au   16.749987   16.526261   16.340117
Au   20.186663   14.189011   17.541597
Au   19.417937   15.890067   15.501098
Au   18.257575   12.300883   18.026468
Au   17.718223   14.950278   18.475565
Au   17.350431   17.579648   19.295986
Au   16.550657   18.787944   11.741504
Au   14.396447   21.323952   15.441967
Au   19.082393   19.576230   12.404261
Au   17.936269   18.043723   14.270008
Au   19.181643   20.425941   14.950038
Au   18.163138   18.889550   16.983915
Au   20.643510   18.335995   15.947177
Au   16.176291   19.916210   18.526836
Au   20.570073   17.420354   13.431439
Au   21.930105   16.177050   16.954737
Au   19.678290   16.875275   18.131095
Au   21.898920   15.222542   14.555060
