54
Generated with con2xyz
Au   12.945262   16.401249   13.361558
Au   13.915643   18.895728   13.972540
Au   14.794561   19.226269   16.486498
Au   13.876043   11.908240   14.884812
Au   13.378724   15.445504   10.770710
Au   15.652039   11.778959   12.761807
Au   15.854085   16.172613   9.796860
Au   13.571242   13.628651   12.774113
Au   15.186433   16.638215   15.296511
Au   15.058288   12.912313   17.119667
Au   15.741877   13.898906   14.683687
Au   13.082227   14.513798   15.314962
Au   15.277565   20.371667   12.046397
Au   14.266933   17.934489   11.378533
Au   16.222774   20.536528   14.570669
Au   16.497734   18.193658   13.191723
Au   16.753363   18.703788   10.403003
Au   15.408052   13.572859   10.660726
Au   12.757560   17.277169   15.986781
Au   14.038008   15.396197   17.588834
Au   17.429989   18.321408   15.876036
Au   18.014175   20.339780   12.309641
Au   17.034173   19.677622   18.122064
Au   19.564242   19.421279   17.265747
Au   18.958353   20.491515   14.837085
Au   16.515329   11.318259   15.364742
Au   17.961984   14.300305   9.758072
Au   17.490260   11.787897   10.669267
Au   17.590904   13.828979   12.525490
Au   18.375390   11.257087   13.165190
Au   20.717302   12.351501   14.000106
Au   17.779606   12.415366   17.558459
Au   16.801552   15.072405   17.067877
Au   18.581273   13.396646   15.209789
Au   18.360609   16.899545   8.950213
Au   19.879706   12.960742   11.404158
Au   18.072409   16.461378   11.606877
Au   19.382321   18.003514   13.576985
Au   21.221144   14.515950   15.578058
Au   20.306090   15.534699   10.358696
Au   17.792517   15.916647   14.488810
Au   18.346328   17.210259   18.299081
Au   15.469739   15.684042   12.535440
Au   19.951455   16.926201   16.112661
Au   15.685758   17.378863   18.164642
Au   19.478640   18.700367   10.655570
Au   20.752290   20.082906   12.659080
Au   21.470610   17.445414   11.866249
Au   21.306363   19.227398   15.176868
Au   20.531119   12.370510   16.996405
Au   20.166070   15.125878   13.110418
Au   22.019564   16.789846   14.349149
Au   19.102512   10.670091   15.673735
Au   19.400746   14.696022   17.665893
