54
Generated with con2xyz
Au   14.323261   15.213403   16.211394
Au   14.377343   15.788049   18.993439
Au   12.089546   16.073269   17.435729
Au   11.895065   17.547268   12.898420
Au   15.713994   20.150165   17.602561
Au   15.861765   13.132160   15.149398
Au   18.109532   13.622887   13.406845
Au   19.569345   12.201952   15.273795
Au   14.257699   14.628401   13.399764
Au   15.772213   12.493735   12.357720
Au   14.557423   10.928479   14.240545
Au   14.146395   14.033751   10.726214
Au   13.123113   13.546172   17.950016
Au   14.193064   17.290522   14.318649
Au   18.144719   14.284357   16.249506
Au   12.957235   12.913102   15.269062
Au   17.331597   11.084411   14.209984
Au   11.934356   18.091745   15.592001
Au   14.624242   11.506401   16.928396
Au   14.159314   17.908269   17.181657
Au   17.064957   15.512902   19.842849
Au   14.087358   16.692187   11.503439
Au   11.911927   15.499956   14.739417
Au   14.062121   19.941159   15.194876
Au   11.959756   14.965445   12.025825
Au   12.995231   12.398082   12.554733
Au   15.966758   18.056576   19.430564
Au   17.434472   22.206755   17.797293
Au   19.720217   20.839545   18.043449
Au   15.795890   21.976531   15.641939
Au   16.454079   15.157277   11.703188
Au   20.693330   13.914016   17.116870
Au   16.602365   15.808968   14.412265
Au   20.388080   14.783571   14.554117
Au   18.788831   16.293825   12.781172
Au   16.297369   20.456720   13.491142
Au   16.583956   16.379974   17.310850
Au   19.306375   15.993452   18.285860
Au   18.870970   16.925744   15.563111
Au   17.438569   11.645894   16.901627
Au   15.910659   13.657304   18.071919
Au   20.708953   18.339742   18.525374
Au   16.412731   17.865303   12.525409
Au   14.029068   19.283128   12.515199
Au   18.716523   18.938380   13.656543
Au   16.458321   18.536010   15.380575
Au   18.192676   20.749139   15.662161
Au   18.143733   18.684377   17.624119
Au   20.467497   19.167652   15.947436
Au   18.561322   17.822536   20.193093
Au   21.009147   17.394957   13.940050
Au   18.546950   13.392084   18.774048
Au   17.576763   20.321028   19.699989
Au   21.392160   16.540183   16.522940
