309
Generated with con2xyz
Pt   10.327383   16.240696   20.196953
Pt   12.216748   14.210736   20.194076
Pt   12.141281   16.145648   18.152527
Pt   12.133124   16.130167   22.248265
Pt   10.336276   20.222091   16.259356
Pt   12.142609   18.167718   16.149249
Pt   12.224065   20.224519   14.229689
Pt   10.266983   18.224574   18.222965
Pt   10.263633   22.192966   22.204871
Pt   12.183623   18.185915   20.211914
Pt   12.189963   20.212054   18.205066
Pt   10.256351   18.211048   22.188348
Pt   10.317462   20.194459   24.165983
Pt   12.126752   18.138601   24.262171
Pt   12.181318   20.199400   22.232793
Pt   12.203324   20.181662   26.191573
Pt   12.149264   22.269351   16.163802
Pt   10.274854   22.205812   18.239386
Pt   10.187670   20.209322   20.213265
Pt   10.343874   24.175956   20.232312
Pt   12.155740   24.276553   18.184567
Pt   12.193670   22.224323   20.228604
Pt   12.134676   22.243666   24.281472
Pt   12.154344   24.262241   22.286026
Pt   12.241890   26.193255   20.245172
Pt   14.203006   12.216376   20.190626
Pt   16.226899   10.320543   20.184824
Pt   16.128813   12.139938   18.142372
Pt   16.128235   12.123399   22.240583
Pt   14.127752   16.139069   16.130128
Pt   16.119172   14.137214   16.124543
Pt   16.119598   16.140437   14.131137
Pt   14.122921   14.130514   18.155348
Pt   14.129761   16.128259   20.205914
Pt   16.124954   14.124901   20.200153
Pt   16.119742   16.124942   18.146249
Pt   14.119789   14.114897   22.237368
Pt   14.119687   16.107131   24.268983
Pt   16.118425   14.104814   24.266785
Pt   16.121105   16.111093   22.268359
Pt   16.115044   16.092261   26.260023
Pt   14.210460   20.228487   12.237226
Pt   16.132172   18.173104   12.147907
Pt   16.236484   20.232253   10.347364
Pt   14.125115   18.177861   14.135621
Pt   14.134926   20.214876   16.146810
Pt   16.120386   18.148749   16.131096
Pt   16.130254   20.217763   14.144981
Pt   14.143806   18.142151   18.149121
Pt   14.219569   20.201984   20.227662
Pt   16.164444   18.159669   20.220191
Pt   16.163439   20.204028   18.180723
Pt   14.141115   18.129029   22.277786
Pt   14.127924   20.189466   24.285800
Pt   16.123020   18.124511   24.288969
Pt   16.175508   20.194634   22.275228
Pt   14.108444   18.128829   26.266005
Pt   14.183236   20.161421   28.171376
Pt   16.114637   18.101309   28.242122
Pt   16.122016   20.177382   26.277223
Pt   16.202031   20.134307   30.060345
Pt   16.141521   22.277110   12.162548
Pt   14.131874   22.264978   14.149021
Pt   14.140497   24.288993   16.156944
Pt   16.127796   22.272466   16.143612
Pt   16.136137   24.293157   14.157555
Pt   14.150905   22.273527   18.163112
Pt   14.148054   24.269508   20.239117
Pt   16.172333   22.235562   20.233748
Pt   16.134048   24.282245   18.170766
Pt   14.154652   22.260346   22.300962
Pt   14.147653   24.260614   24.311957
Pt   16.143928   22.246666   24.322096
Pt   16.144479   24.264488   22.306860
Pt   14.115512   22.226198   26.285498
Pt   16.110364   22.218901   28.266652
Pt   16.154171   24.258029   26.315724
Pt   16.141500   26.281114   16.162040
Pt   14.143468   26.279617   18.198570
Pt   14.231929   28.173613   20.251848
Pt   16.147806   26.261560   20.242951
Pt   16.156577   28.259183   18.195928
Pt   14.150921   26.262088   22.291452
Pt   16.163085   26.247361   24.328372
Pt   16.160563   28.241304   22.302400
Pt   16.260323   30.057782   20.254890
Pt   18.138684   12.144780   16.129504
Pt   20.185643   10.331005   16.224227
Pt   20.186195   12.227505   14.201979
Pt   18.200618   10.260031   18.198504
Pt   18.174619   12.172298   20.194398
Pt   20.188625   10.171933   20.187121
Pt   20.189805   12.178134   18.177330
Pt   18.201695   10.243731   22.173443
Pt   18.142417   12.111254   24.253239
Pt   20.191250   10.298324   24.148989
Pt   20.192968   12.161101   22.212670
Pt   20.195093   12.181576   26.179398
Pt   18.141071   16.153291   12.141041
Pt   20.187518   14.221727   12.216699
Pt   20.190555   16.254819   10.331909
Pt   18.146794   14.136261   14.122669
Pt   18.133455   16.126281   16.124407
Pt   20.190736   14.131460   16.127093
Pt   20.192901   16.135046   14.131114
Pt   18.128472   14.140343   18.136151
Pt   18.160014   16.155520   20.213457
Pt   20.193963   14.201792   20.206757
Pt   20.195277   16.155111   18.168053
Pt   18.131554   14.124241   22.266917
Pt   18.141107   16.100324   24.284128
Pt   20.198735   14.103338   24.271808
Pt   20.200299   16.151988   22.259499
Pt   18.150882   14.088540   26.264036
Pt   18.136671   16.090258   28.242971
Pt   20.195521   14.162288   28.167008
Pt   20.202649   16.095443   26.273318
Pt   20.181880   16.182724   30.054260
Pt   18.207494   18.237495   10.273772
Pt   18.184154   20.220230   12.197069
Pt   20.196815   18.195796   12.189506
Pt   20.201314   20.221756   10.201036
Pt   18.131251   18.145647   14.147214
Pt   18.162866   20.205100   16.173606
Pt   20.198747   18.160022   16.166991
Pt   20.203100   20.207004   14.223483
Pt   18.165377   18.165052   18.178072
Pt   18.178545   20.194625   20.223130
Pt   20.199873   18.165797   20.217015
Pt   20.204418   20.193425   18.187139
Pt   18.174928   18.161056   22.262992
Pt   18.194643   20.191291   24.291490
Pt   20.210125   18.162485   24.282558
Pt   20.205150   20.194453   22.256964
Pt   18.136206   18.107499   26.261821
Pt   18.174129   20.161661   28.208559
Pt   20.200420   18.153217   28.206997
Pt   20.268913   20.227631   26.291955
Pt   18.183740   18.150982   30.121362
Pt   20.142012   20.110038   30.171697
Pt   18.217959   22.216605   10.287326
Pt   18.161525   24.286730   12.168740
Pt   20.207601   22.232997   12.203602
Pt   20.212232   24.186551   10.359415
Pt   18.141281   22.279669   14.161200
Pt   18.150890   24.285844   16.149385
Pt   20.209028   22.240781   16.179257
Pt   20.213511   24.280190   14.157827
Pt   18.172922   22.233196   18.187137
Pt   18.174642   24.230171   20.231743
Pt   20.209565   22.212850   20.218225
Pt   20.214755   24.235172   18.187534
Pt   18.184065   22.219310   22.275848
Pt   18.179012   24.247276   24.336837
Pt   20.229711   22.243040   24.312160
Pt   20.217260   24.210496   22.262068
Pt   18.195465   22.241466   26.309990
Pt   18.154999   24.139596   28.249666
Pt   20.205672   22.209262   28.340740
Pt   20.233302   24.283643   26.402248
Pt   18.142986   22.084416   30.112090
Pt   20.218436   26.206824   12.256853
Pt   18.174522   26.288553   14.162112
Pt   18.171392   28.264529   16.181024
Pt   20.218983   26.270664   16.163889
Pt   20.223347   28.187667   14.253682
Pt   18.151794   26.257457   18.171770
Pt   18.205764   28.202750   20.247309
Pt   20.221856   26.175341   20.237286
Pt   20.224346   28.207380   18.227140
Pt   18.156057   26.237101   22.307113
Pt   18.178621   28.229333   24.312473
Pt   20.221814   26.208267   24.302335
Pt   20.228590   28.192307   22.263999
Pt   18.212451   26.206217   26.298086
Pt   20.227383   30.067751   16.289972
Pt   18.236905   30.127806   18.265255
Pt   20.228539   30.193932   20.249822
Pt   18.236533   30.115084   22.236189
Pt   20.229542   30.067565   24.186416
Pt   22.237527   12.137407   16.128725
Pt   22.173769   10.255443   18.199988
Pt   22.206701   12.168408   20.196666
Pt   24.148830   10.311007   20.189516
Pt   24.250183   12.126963   18.143676
Pt   22.177552   10.238445   22.175551
Pt   22.245165   12.107318   24.257643
Pt   24.252239   12.116877   22.247315
Pt   22.242524   16.143071   12.139525
Pt   22.231796   14.127824   14.121412
Pt   22.255431   16.116952   16.123928
Pt   24.263520   14.120203   16.123079
Pt   24.267528   16.120899   14.128709
Pt   22.256308   14.132306   18.135324
Pt   22.233985   16.148342   20.211027
Pt   24.261049   14.112697   20.202207
Pt   24.273222   16.107667   18.143999
Pt   22.258772   14.123565   22.273081
Pt   22.258124   16.107935   24.299283
Pt   24.265290   14.107078   24.280696
Pt   24.271398   16.100759   22.270421
Pt   22.243569   14.087831   26.271029
Pt   22.261112   16.090906   28.258672
Pt   24.267883   16.113981   26.291518
Pt   22.184080   18.225991   10.271259
Pt   22.220350   20.208305   12.195166
Pt   24.261391   18.150871   12.144563
Pt   24.165333   20.208797   10.342510
Pt   22.264454   18.134972   14.146306
Pt   22.245238   20.194984   16.172028
Pt   24.279165   18.128352   16.127953
Pt   24.276449   20.195141   14.141282
Pt   22.234662   18.155919   18.176143
Pt   22.233614   20.184614   20.218091
Pt   24.240718   18.143116   20.214948
Pt   24.248921   20.183679   18.174829
Pt   22.230703   18.155054   22.255829
Pt   22.231680   20.201362   24.270779
Pt   24.270359   18.114896   24.291080
Pt   24.246749   20.179321   22.265292
Pt   22.263388   18.139566   26.305068
Pt   22.279574   20.233870   28.360272
Pt   24.224226   18.176428   28.254151
Pt   24.236288   20.170596   26.275204
Pt   22.132082   18.127230   30.094199
Pt   22.195596   22.204764   10.285620
Pt   22.264953   24.274164   12.167208
Pt   24.273722   22.253292   12.158320
Pt   22.275912   22.268145   14.159215
Pt   22.278133   24.274500   16.146484
Pt   24.292132   22.250212   16.138719
Pt   24.291673   24.270547   14.153167
Pt   22.247256   22.223069   18.184531
Pt   22.259615   24.223011   20.224593
Pt   24.256386   22.216813   20.221570
Pt   24.299592   24.260683   18.162555
Pt   22.245581   22.213491   22.255922
Pt   22.264969   24.227787   24.328290
Pt   24.275561   22.232527   24.323137
Pt   24.296463   24.244692   22.294002
Pt   22.248895   22.276884   26.383520
Pt   22.260502   26.236110   26.203243
Pt   24.354734   22.150307   28.138845
Pt   24.287996   24.221812   26.277872
Pt   22.263106   26.277398   14.159885
Pt   22.275922   28.254971   16.177207
Pt   24.298323   26.259922   16.155876
Pt   22.289295   26.247294   18.166660
Pt   22.246979   28.193040   20.242661
Pt   24.297690   26.241934   20.232797
Pt   24.294048   28.238642   18.186550
Pt   22.292118   26.225871   22.304348
Pt   22.289997   28.241512   24.288144
Pt   24.302281   26.229496   24.312218
Pt   24.298944   28.226392   22.282060
Pt   20.241752   28.159249   26.138755
Pt   22.219906   30.118587   18.261545
Pt   24.201571   30.042822   20.239208
Pt   22.224004   30.116824   22.218666
Pt   26.175863   12.197779   20.195811
Pt   26.264735   16.109519   16.126642
Pt   26.262664   14.106788   18.155655
Pt   26.264078   16.104762   20.206367
Pt   28.167716   14.178688   20.199514
Pt   28.253891   16.107956   18.151191
Pt   26.262608   14.098471   22.245718
Pt   26.264069   16.093247   24.280682
Pt   28.256321   16.098337   22.253792
Pt   26.193977   20.195000   12.231255
Pt   26.272911   18.145421   14.130158
Pt   26.277226   20.182383   16.139804
Pt   28.259828   18.125043   16.140897
Pt   28.184964   20.181117   14.219489
Pt   26.260510   18.112755   18.143013
Pt   26.198839   20.173248   20.218257
Pt   28.219922   18.148277   20.208468
Pt   28.225221   20.169948   18.194452
Pt   26.260588   18.106353   22.279602
Pt   26.278946   20.164315   24.294145
Pt   28.269186   18.104581   24.265241
Pt   28.230586   20.160037   22.232063
Pt   26.268086   18.110459   26.280696
Pt   26.234696   20.155780   28.088032
Pt   28.227134   20.143111   26.177804
Pt   26.286451   22.231570   14.142265
Pt   26.291319   24.256586   16.147347
Pt   28.274495   22.225674   16.151133
Pt   26.275310   22.241962   18.152073
Pt   26.290889   24.238730   20.227159
Pt   28.233066   22.181524   20.219761
Pt   28.280886   24.232222   18.170967
Pt   26.272204   22.230272   22.295760
Pt   26.296928   24.239413   24.294464
Pt   28.303020   22.203393   24.262223
Pt   28.288413   24.221017   22.268216
Pt   26.329244   22.223674   26.267644
Pt   26.300617   26.247488   18.186225
Pt   26.224288   28.145946   20.232765
Pt   28.208136   26.151970   20.225798
Pt   26.303380   26.235864   22.270267
Pt   30.066595   16.194602   20.199546
Pt   30.076273   20.168302   16.246122
Pt   30.136849   18.174290   18.215958
Pt   30.225714   20.155698   20.207524
Pt   30.146643   18.161421   22.188476
Pt   30.108764   20.142054   24.153194
Pt   30.150208   22.150797   18.226746
Pt   30.095804   24.121628   20.215108
Pt   30.168920   22.139357   22.189691
