309
Generated with con2xyz
Pt   11.624013   20.046379   26.069417
Pt   11.424472   14.151694   20.068771
Pt   11.514332   16.850463   19.291455
Pt   12.056818   14.727215   22.741080
Pt   10.477838   21.498656   19.947403
Pt   11.715727   19.581205   18.562599
Pt   11.999839   22.342613   17.889194
Pt   10.058178   16.113430   21.479314
Pt   10.841468   19.403989   23.466262
Pt   12.292027   17.523142   21.994805
Pt   12.430178   20.323342   21.339673
Pt   10.696074   16.734094   24.128322
Pt   13.546512   16.110660   28.012929
Pt   12.769494   15.381368   25.409945
Pt   11.463632   17.389838   26.737172
Pt   15.701825   14.827598   29.228519
Pt   12.665277   23.043515   20.538381
Pt   13.100662   21.021710   23.996541
Pt   10.194209   18.832190   20.779145
Pt   14.235920   24.286772   25.840070
Pt   13.466210   23.707395   23.217925
Pt   13.017423   18.184414   24.670223
Pt   13.695243   18.862883   27.412160
Pt   13.896419   21.596110   26.621491
Pt   16.540921   25.715291   26.382094
Pt   15.183430   13.585970   19.134066
Pt   14.423339   10.358867   17.270344
Pt   12.976346   14.894282   17.871399
Pt   18.751771   7.789145   19.735617
Pt   13.175239   17.631468   17.134855
Pt   14.643566   15.696966   15.711788
Pt   14.832972   18.425195   14.981463
Pt   12.893744   12.214438   18.650876
Pt   13.706952   15.535261   20.559211
Pt   16.720254   11.675017   17.718802
Pt   15.358211   16.344675   18.376604
Pt   13.516522   12.780931   21.313790
Pt   14.244975   13.417788   23.988463
Pt   15.716841   11.478203   22.571889
Pt   15.902581   14.207740   21.836203
Pt   16.443248   12.121408   25.221173
Pt   13.671286   23.045826   15.813882
Pt   18.070159   17.252105   11.578969
Pt   18.331113   26.068742   16.744707
Pt   13.360035   20.381508   16.417225
Pt   14.074986   21.080520   19.113098
Pt   15.552295   19.092043   17.647584
Pt   15.785708   21.848834   16.954569
Pt   13.890916   18.321520   19.812441
Pt   14.671076   19.011707   22.531390
Pt   16.118213   17.007907   21.092364
Pt   16.322329   19.774149   20.353784
Pt   14.447351   16.160779   23.268954
Pt   15.154779   16.865721   25.961841
Pt   16.631067   14.861571   24.522552
Pt   16.854329   17.664036   23.790423
Pt   14.935863   14.095533   26.650099
Pt   17.334713   15.569670   27.190841
Pt   22.840550   19.060592   30.759331
Pt   17.113247   12.794223   27.853646
Pt   22.042038   15.685096   29.022566
Pt   19.870747   24.050765   15.341611
Pt   14.296526   23.846034   18.378794
Pt   15.004427   24.514982   21.056807
Pt   16.483255   22.563389   19.634624
Pt   16.666997   25.281074   18.885112
Pt   14.820510   21.768594   21.802214
Pt   15.560062   22.387131   24.486210
Pt   17.070814   20.432868   23.050234
Pt   17.213576   23.226276   22.307593
Pt   15.347892   19.661535   25.250174
Pt   16.063657   20.304793   27.918560
Pt   17.548705   18.339342   26.507284
Pt   17.752995   21.088881   25.780059
Pt   15.858997   17.555434   28.639560
Pt   18.039615   16.273679   29.866462
Pt   18.260758   18.984231   29.161528
Pt   17.388626   25.940090   21.555048
Pt   15.753275   25.177524   23.736662
Pt   18.938722   27.038178   26.828075
Pt   17.947053   23.845658   25.012729
Pt   18.146583   26.585344   24.246566
Pt   16.266313   23.036571   27.191336
Pt   18.447220   21.710923   28.441950
Pt   18.671427   24.454919   27.697936
Pt   21.099156   25.782447   28.092634
Pt   14.461777   12.967814   16.442301
Pt   18.404221   12.456854   15.544981
Pt   20.101012   13.259720   13.331406
Pt   16.029897   11.104964   15.093912
Pt   19.860791   8.082599   15.011213
Pt   22.161568   9.312761   15.414268
Pt   16.557246   9.016562   18.494174
Pt   15.001947   10.842229   19.903655
Pt   17.210498   9.541835   21.151223
Pt   19.457250   8.334645   22.342630
Pt   18.934965   10.355494   18.954767
Pt   20.174150   9.031258   24.915193
Pt   20.281402   15.985821   12.604825
Pt   17.886209   14.571742   12.212517
Pt   19.220931   23.402656   12.716764
Pt   16.140647   13.762521   14.281631
Pt   17.039346   17.135625   16.208522
Pt   18.573630   15.184280   14.765868
Pt   18.769626   17.936325   14.076625
Pt   16.855042   14.407874   16.939635
Pt   17.606908   15.039065   19.653850
Pt   19.139113   13.113158   18.229694
Pt   19.305803   15.833738   17.465818
Pt   17.398407   12.263938   20.417376
Pt   18.114042   12.906449   23.079140
Pt   19.644443   10.950590   21.641148
Pt   19.840966   13.723158   20.907446
Pt   17.935585   10.179419   23.810086
Pt   18.688640   10.874154   26.437166
Pt   20.195751   14.934276   30.922611
Pt   20.362853   11.636786   24.304639
Pt   21.119832   12.204979   27.006444
Pt   18.894593   20.682067   13.279578
Pt   20.066423   26.665984   14.678109
Pt   21.369009   22.094240   13.916539
Pt   16.547230   19.166675   12.927666
Pt   17.254656   19.888845   15.495568
Pt   18.006463   20.549984   18.211532
Pt   19.502391   18.576440   16.765259
Pt   19.644061   21.313970   16.020451
Pt   17.799206   17.790561   18.916100
Pt   18.542310   18.464135   21.607110
Pt   20.031086   16.484015   20.159807
Pt   20.239029   19.257129   19.445388
Pt   18.329741   15.692589   22.343036
Pt   19.065738   16.350896   25.036990
Pt   20.554536   14.400647   23.579388
Pt   20.753371   17.161243   22.848862
Pt   18.854907   13.558540   25.745045
Pt   19.565083   14.296643   28.352639
Pt   24.933349   11.840647   26.003640
Pt   21.311806   15.023238   26.288739
Pt   19.324035   11.667352   29.021699
Pt   25.836800   15.191141   27.960493
Pt   23.025453   22.814169   11.894657
Pt   17.402491   22.633538   14.712794
Pt   18.153273   23.327530   17.452855
Pt   20.706206   21.443354   11.374948
Pt   17.755351   25.287306   14.176579
Pt   18.886132   24.011095   20.130491
Pt   20.419649   22.022135   18.703590
Pt   20.589193   24.790785   17.974820
Pt   18.742152   21.240475   20.883391
Pt   19.470124   21.887355   23.572905
Pt   20.978841   19.934900   22.135958
Pt   21.167689   22.687495   21.390064
Pt   19.266953   19.124372   24.309831
Pt   19.954959   19.775518   27.024165
Pt   21.473706   17.808570   25.538153
Pt   21.700084   20.572421   24.827985
Pt   19.772780   17.028503   27.738813
Pt   23.010487   21.736196   30.141367
Pt   24.386435   17.152168   29.408144
Pt   21.644357   13.026681   29.572865
Pt   20.478432   17.636967   30.352942
Pt   20.742866   27.402466   17.245907
Pt   19.049020   26.729661   19.390499
Pt   19.756335   27.359838   22.059808
Pt   21.310399   25.446486   20.634659
Pt   20.581959   27.869517   24.714378
Pt   19.613546   24.647151   22.806244
Pt   20.396887   25.228610   25.485638
Pt   21.916931   23.297108   24.061204
Pt   24.324790   27.532115   23.611710
Pt   20.155890   22.507271   26.287502
Pt   20.822640   23.107799   28.954122
Pt   22.382600   21.186229   27.544405
Pt   24.401963   24.861079   24.643956
Pt   20.644986   20.370420   29.695334
Pt   22.092877   28.632304   22.474221
Pt   22.060349   26.035325   23.314365
Pt   22.831148   26.676687   26.004987
Pt   22.593300   23.914654   26.752881
Pt   23.157916   24.380134   29.381892
Pt   17.709571   11.937163   12.999803
Pt   19.899128   10.578199   14.112179
Pt   20.611223   11.101737   16.760435
Pt   18.164265   9.696534   16.275701
Pt   22.318514   11.944503   14.578154
Pt   20.434351   8.437807   17.576729
Pt   21.169222   9.011602   20.212260
Pt   22.855170   9.807962   18.045137
Pt   16.324754   16.476833   13.551596
Pt   22.670516   17.405042   13.114704
Pt   21.011575   16.607415   15.262261
Pt   22.500025   14.672861   13.834262
Pt   22.881034   20.119901   12.412607
Pt   20.828372   13.868364   15.993206
Pt   21.542372   14.522811   18.719563
Pt   23.019881   12.537813   17.269593
Pt   23.221737   15.303988   16.499718
Pt   21.367379   11.732955   19.468904
Pt   22.079472   12.377619   22.147646
Pt   23.569358   10.438330   20.713650
Pt   23.759330   13.163729   19.979815
Pt   21.885505   9.645573   22.858988
Pt   17.875709   13.577597   30.370203
Pt   24.275531   11.089648   23.392386
Pt   15.990599   24.558908   16.215769
Pt   21.549984   24.780919   13.232939
Pt   20.436521   18.730202   11.947597
Pt   25.219861   21.572170   13.036025
Pt   21.175928   19.360559   14.547113
Pt   21.911979   20.052077   17.260738
Pt   23.403983   18.064876   15.770739
Pt   23.609158   20.835431   15.089806
Pt   21.730108   17.280224   17.981417
Pt   22.451645   17.946694   20.685171
Pt   23.938268   15.971253   19.239348
Pt   24.123906   18.749525   18.504264
Pt   22.256230   15.168578   21.409501
Pt   22.961851   15.854393   24.090808
Pt   24.467950   13.820881   22.669603
Pt   24.659375   16.630974   21.946709
Pt   22.767048   13.064928   24.848033
Pt   28.953829   14.060172   24.403631
Pt   27.265019   13.310777   26.470185
Pt   30.581001   14.861884   22.271094
Pt   23.481205   13.698993   27.560891
Pt   15.060920   21.117782   14.357844
Pt   22.303491   25.551855   15.796843
Pt   23.808315   23.596245   14.389809
Pt   22.139603   22.828214   16.556338
Pt   22.857368   23.517476   19.214482
Pt   24.348506   21.552427   17.780597
Pt   24.527578   24.275798   17.028821
Pt   22.657304   20.732391   19.954893
Pt   23.436370   21.398986   22.655406
Pt   24.850462   19.407768   21.210524
Pt   25.078238   22.232841   20.482342
Pt   23.189170   18.622166   23.388292
Pt   23.920377   19.255567   26.112629
Pt   25.400059   17.309390   24.678721
Pt   25.610633   20.091432   23.956471
Pt   23.682737   16.473826   26.821840
Pt   24.608614   19.830204   28.805381
Pt   25.140438   14.530277   25.363350
Pt   26.103433   17.897391   27.357345
Pt   22.993683   26.230478   18.416030
Pt   21.423566   28.058679   19.864516
Pt   25.241895   24.938577   19.647898
Pt   23.616967   24.158676   21.905249
Pt   25.604156   27.126050   25.851475
Pt   25.939863   22.985226   23.252356
Pt   25.900039   25.665987   22.219217
Pt   24.148412   22.023235   25.364148
Pt   24.783408   22.518487   28.127598
Pt   26.317012   20.616044   26.651001
Pt   26.489712   23.298343   26.053490
Pt   22.178770   18.431914   28.236614
Pt   23.686447   26.894877   21.019067
Pt   27.104963   25.364252   24.540381
Pt   24.918455   25.172479   27.442389
Pt   24.493981   10.711737   15.914476
Pt   24.874498   16.108490   14.348918
Pt   24.697275   13.359901   15.086182
Pt   25.400248   13.980633   17.789334
Pt   26.836712   12.129416   16.426759
Pt   27.051833   14.796389   15.608650
Pt   25.233508   11.227672   18.546831
Pt   25.941606   11.870958   21.233967
Pt   27.586240   12.665100   19.071467
Pt   29.543960   19.015536   15.520260
Pt   25.078975   18.852387   13.637839
Pt   25.791819   19.552042   16.324511
Pt   27.246293   17.569673   14.876519
Pt   31.604776   17.722909   16.828861
Pt   25.596721   16.761099   17.021497
Pt   26.310855   17.438837   19.776025
Pt   27.749361   15.432722   18.322535
Pt   27.948536   18.263071   17.580040
Pt   26.135951   14.613650   20.515228
Pt   26.846881   15.306143   23.232121
Pt   29.921859   14.117135   19.627395
Pt   28.482510   16.108296   21.086260
Pt   28.305265   13.325814   21.781903
Pt   26.652313   12.528949   23.917023
Pt   32.113323   15.691011   20.128825
Pt   27.393069   20.297066   14.266682
Pt   26.004580   22.312646   15.612445
Pt   28.170046   21.031888   16.860375
Pt   26.528240   20.256559   19.032392
Pt   27.209701   20.901384   21.773525
Pt   28.678190   18.948289   20.347460
Pt   26.728347   22.992101   18.293416
Pt   27.060101   18.106205   22.525778
Pt   27.783173   18.737742   25.197550
Pt   27.577327   15.978067   25.915047
Pt   29.418427   19.567171   23.048544
Pt   22.569325   10.370461   25.445713
Pt   27.424645   23.627192   20.973704
Pt   29.503903   22.193733   22.219167
Pt   30.969938   20.313730   20.836696
Pt   27.959902   21.476915   24.461430
Pt   29.169121   13.569772   16.957454
Pt   29.226797   16.777380   23.772791
Pt   29.387485   16.263081   16.136998
Pt   30.033823   16.949834   18.910113
Pt   31.421778   15.060965   17.532502
Pt   30.849028   17.605080   21.633907
Pt   30.314169   19.752770   18.144971
Pt   28.888300   21.705169   19.578608
Pt   32.301828   18.352065   19.424133
