309
Generated with con2xyz
Pt   23.946668   18.401007   11.381160
Pt   24.773018   21.125622   11.387477
Pt   28.136941   15.617810   24.724065
Pt   21.131034   27.968574   25.254311
Pt   23.098598   14.651509   22.934002
Pt   22.844139   14.770708   25.811747
Pt   21.189975   20.703598   26.916582
Pt   21.484227   16.633188   24.197218
Pt   17.063829   31.500400   17.731076
Pt   22.605226   20.294452   9.897437
Pt   23.012870   18.642936   22.794799
Pt   19.586760   26.084645   16.488375
Pt   24.097680   21.362324   19.926466
Pt   21.392346   27.925113   22.439223
Pt   21.254844   16.744562   27.040713
Pt   26.651817   14.605683   14.570903
Pt   21.900807   20.498541   18.321094
Pt   17.157498   17.064517   13.622644
Pt   22.256822   25.215526   12.502500
Pt   26.376326   27.064538   18.546183
Pt   17.224343   21.895722   17.903042
Pt   19.251265   23.724582   20.929624
Pt   22.377314   20.360594   12.595744
Pt   19.435046   21.231452   19.544499
Pt   16.970364   21.961026   20.767959
Pt   12.944523   23.295351   14.741773
Pt   12.250480   23.401272   20.325987
Pt   18.950310   21.372188   25.308927
Pt   18.768033   21.437156   28.096211
Pt   18.365156   19.102887   15.125962
Pt   26.158186   19.222157   12.919212
Pt   24.896089   12.583606   18.768217
Pt   19.082831   16.452254   18.174547
Pt   20.375376   18.513269   19.681430
Pt   17.445975   19.401432   26.667805
Pt   19.694345   18.754841   28.234549
Pt   19.612088   16.364177   12.509447
Pt   23.481817   18.508619   17.050461
Pt   27.284593   17.376715   17.347649
Pt   13.767487   20.572421   14.722972
Pt   21.424498   20.633313   24.048296
Pt   23.624788   21.490561   25.676998
Pt   23.448486   23.971121   27.040588
Pt   25.075491   16.521370   15.766678
Pt   28.160710   23.051824   25.865620
Pt   23.796672   28.810201   21.240705
Pt   25.882978   24.714869   25.801880
Pt   27.904614   20.248833   20.257887
Pt   25.447537   19.438643   21.537748
Pt   30.316602   20.977698   19.006007
Pt   24.609150   16.642251   21.546549
Pt   22.454243   16.392626   12.681274
Pt   25.679672   19.377677   18.644021
Pt   28.521399   27.711569   20.138782
Pt   29.193662   18.291739   21.854617
Pt   22.134970   20.432078   15.462003
Pt   21.424001   30.342209   20.956224
Pt   19.194449   21.300110   22.420403
Pt   21.661967   20.565498   21.188417
Pt   23.480432   26.390560   25.572342
Pt   21.030463   23.157944   28.240454
Pt   17.468759   21.836130   14.992602
Pt   19.912145   21.098784   13.777119
Pt   16.700437   29.327238   22.057779
Pt   26.758224   22.060749   15.806476
Pt   16.568687   24.530338   25.039328
Pt   18.794205   23.861981   26.673557
Pt   19.675526   21.163478   16.667771
Pt   17.291310   24.332048   16.340696
Pt   12.178396   23.472842   23.110322
Pt   13.392946   20.629780   17.539419
Pt   14.816389   25.037007   17.597242
Pt   16.557865   22.113582   26.460182
Pt   16.609097   17.189680   19.408490
Pt   19.632091   28.480501   15.038719
Pt   14.442057   17.884477   17.739663
Pt   15.406297   19.970679   22.165128
Pt   18.130269   19.173257   18.030824
Pt   14.935795   15.305721   23.719166
Pt   14.929937   27.471438   16.099672
Pt   13.709988   13.327164   22.177621
Pt   22.041448   12.507357   18.521712
Pt   19.893267   18.648022   25.444479
Pt   20.354064   10.823522   22.742259
Pt   18.424158   16.715678   26.744866
Pt   10.907947   21.415653   21.735466
Pt   21.113704   18.340397   11.151116
Pt   23.852274   21.422807   22.791028
Pt   26.549136   17.562389   26.023604
Pt   25.661987   14.896660   25.932554
Pt   22.532695   18.815426   28.465419
Pt   31.755008   19.013694   17.714761
Pt   20.849135   18.366196   13.936089
Pt   16.347701   17.275874   22.305015
Pt   19.112707   12.414182   18.284009
Pt   21.082526   25.558179   26.757105
Pt   20.973143   20.772754   29.614161
Pt   28.762642   22.985949   20.267858
Pt   20.610770   18.445148   16.816567
Pt   31.587943   19.064830   20.629681
Pt   26.420341   14.606482   17.398571
Pt   23.766356   26.367915   22.711477
Pt   23.359069   21.540108   28.456637
Pt   23.406641   10.643514   20.279000
Pt   24.925974   9.001835   18.784219
Pt   28.560295   25.453534   21.646570
Pt   27.603298   12.782446   21.805499
Pt   28.913589   25.297013   15.934970
Pt   21.803601   12.656206   21.401794
Pt   19.987827   23.518473   12.291252
Pt   22.049262   25.338685   15.295364
Pt   26.330607   29.275169   16.919589
Pt   21.730904   22.986155   19.691745
Pt   26.642723   26.922463   15.587910
Pt   21.492015   23.050063   22.571296
Pt   26.610511   24.573689   17.157679
Pt   19.450504   30.869963   16.499919
Pt   21.703262   30.322960   18.077346
Pt   16.784804   24.456829   22.200357
Pt   24.063442   28.721990   18.369273
Pt   28.180168   27.802431   22.966878
Pt   21.257439   23.129318   25.458801
Pt   26.400368   24.637412   20.036732
Pt   18.861031   16.554228   21.045496
Pt   16.997445   29.204415   19.156422
Pt   23.934715   23.857697   21.306967
Pt   18.854989   26.269168   25.194401
Pt   24.171541   23.797290   18.427756
Pt   15.286098   22.520455   13.444213
Pt   18.643801   19.059165   12.287500
Pt   14.723929   27.475658   19.003490
Pt   14.509461   22.691208   21.986982
Pt   14.711403   22.618032   19.111049
Pt   14.582267   29.912264   20.333975
Pt   12.713718   25.722700   16.036786
Pt   17.889297   19.249463   20.915976
Pt   17.777855   14.319888   16.657767
Pt   20.924020   14.413225   14.029027
Pt   12.392570   28.187078   20.174237
Pt   19.808270   25.999401   13.647758
Pt   15.231746   20.092199   25.050608
Pt   23.732058   18.433612   14.169196
Pt   12.241010   25.870045   21.665500
Pt   22.210932   8.945600   18.568603
Pt   12.416729   18.544993   16.040349
Pt   25.224165   19.491148   24.442863
Pt   19.337279   16.382598   15.317669
Pt   15.069621   15.237042   20.768666
Pt   19.500340   23.663770   18.033655
Pt   13.992379   18.046577   23.607111
Pt   24.821438   16.589576   18.653876
Pt   18.885516   12.493732   21.150178
Pt   20.138560   18.585597   22.558617
Pt   23.655806   10.669623   17.105639
Pt   23.328173   14.589867   20.032019
Pt   16.193144   19.829093   13.479195
Pt   19.477667   12.489642   15.439427
Pt   14.348492   25.201799   23.378333
Pt   25.192726   12.608391   15.835562
Pt   21.529309   12.738410   24.338950
Pt   28.345092   20.074677   14.519655
Pt   17.350917   14.575562   22.400101
Pt   27.394226   20.343976   26.008575
Pt   20.794491   10.630687   17.017871
Pt   18.122031   14.421967   13.905165
Pt   19.956892   14.700268   25.547515
Pt   20.665770   14.426462   16.920668
Pt   26.044266   22.265687   24.385564
Pt   20.193075   14.586107   22.680176
Pt   24.641163   23.617019   12.677681
Pt   30.091465   13.594916   17.770587
Pt   25.777665   22.298246   27.187986
Pt   29.656660   13.804908   23.308879
Pt   30.460334   16.410517   23.441763
Pt   29.931485   13.630182   20.586756
Pt   27.649646   20.281609   23.146081
Pt   26.166841   14.633512   20.282402
Pt   23.554152   14.497512   17.120389
Pt   32.903195   17.210648   19.264340
Pt   26.545230   22.153898   18.668164
Pt   27.501891   17.309512   14.502653
Pt   25.913315   27.116940   24.377446
Pt   28.998285   22.918457   17.418535
Pt   28.525712   23.048324   23.124219
Pt   24.246605   26.232494   16.898277
Pt   26.136064   24.711333   22.911230
Pt   29.084215   22.803543   14.653589
Pt   21.650588   27.916603   19.582568
Pt   12.360929   25.790083   18.834227
Pt   21.130731   30.276944   23.692257
Pt   18.900420   28.672457   23.694422
Pt   26.952638   21.963892   13.000215
Pt   28.211363   25.480849   24.466807
Pt   24.445935   26.082550   14.005791
Pt   17.195426   29.198714   16.253691
Pt   19.009576   23.801386   23.842167
Pt   19.078114   26.205489   22.356457
Pt   21.550343   25.450598   21.070399
Pt   24.324380   21.293334   17.058407
Pt   16.833090   31.557678   20.478512
Pt   14.814243   29.850208   17.564620
Pt   21.321084   25.529857   23.973614
Pt   28.798475   25.393954   18.759838
Pt   17.037032   24.383540   19.269859
Pt   17.743858   21.775720   12.208438
Pt   16.631958   26.928501   23.563373
Pt   19.744953   23.603645   15.121961
Pt   16.292364   12.508838   18.227743
Pt   20.411115   14.499579   19.781740
Pt   14.569458   25.102024   20.514657
Pt   12.510134   23.323785   17.474468
Pt   22.045373   27.687748   13.867789
Pt   26.989732   17.470305   20.237526
Pt   13.025571   20.788598   23.428624
Pt   19.178043   28.618008   20.830106
Pt   17.573288   14.476617   19.543873
Pt   11.795823   18.721026   22.034835
Pt   16.188517   17.348922   25.195517
Pt   13.314923   15.966724   16.176500
Pt   14.083410   17.914338   20.634399
Pt   9.855162   19.368625   20.319892
Pt   11.668598   14.138941   20.598962
Pt   17.173165   14.651369   25.242606
Pt   12.626308   28.122724   17.419527
Pt   13.890877   13.208240   19.372104
Pt   16.864401   17.103555   16.506234
Pt   12.901025   15.881891   18.987015
Pt   23.814236   14.489138   14.259469
Pt   16.053420   12.535438   20.954545
Pt   15.907168   19.853152   16.346085
Pt   15.670291   15.180367   15.004415
Pt   23.073423   10.902798   23.069558
Pt   25.996081   14.673216   23.202115
Pt   22.271973   12.528301   15.589276
Pt   23.253324   18.571173   19.928990
Pt   21.957756   16.499242   18.418156
Pt   26.483739   10.774743   17.481605
Pt   25.942773   19.287656   15.753307
Pt   21.727977   16.569263   21.296211
Pt   21.971261   22.922552   16.817572
Pt   22.205927   16.417376   15.523391
Pt   29.487033   18.210303   18.997271
Pt   18.693205   12.664730   23.982942
Pt   18.612677   16.612832   23.942027
Pt   24.351253   12.841572   24.539215
Pt   30.979144   16.236274   17.718044
Pt   28.849129   15.398107   16.103111
Pt   17.369330   26.735147   14.861474
Pt   26.786730   17.501440   23.183421
Pt   29.680588   18.150784   16.098831
Pt   24.253578   28.543188   15.310689
Pt   20.186315   21.026092   10.996665
Pt   26.836410   24.449324   14.274393
Pt   24.359275   16.724312   24.414486
Pt   21.796619   25.403817   18.190430
Pt   23.958990   26.283819   19.815297
Pt   25.291919   16.501022   12.973863
Pt   26.134163   27.134586   21.377091
Pt   24.422760   23.731608   15.527218
Pt   30.432101   20.880226   16.162197
Pt   23.703203   23.939518   24.206036
Pt   24.972367   19.563197   27.269590
Pt   19.333522   26.137125   19.423033
Pt   22.779355   18.708594   25.682333
Pt   24.578192   21.216395   14.175853
Pt   15.088267   25.013003   14.729056
Pt   19.268368   31.030403   19.311261
Pt   24.035141   30.806618   16.706113
Pt   14.436238   27.602462   21.903103
Pt   25.897955   29.341498   22.901983
Pt   19.442063   28.556188   17.903984
Pt   10.760220   16.751628   20.454253
Pt   28.641705   27.691191   17.297817
Pt   22.217301   22.859180   13.929069
Pt   11.069145   21.326986   18.922669
Pt   17.143598   26.780533   17.705840
Pt   27.987514   12.737597   16.214958
Pt   23.512968   28.782682   24.060184
Pt   18.982694   30.993495   22.121946
Pt   17.532534   24.258580   13.501682
Pt   12.736470   16.009334   22.175517
Pt   15.021091   22.568758   16.255704
Pt   26.267016   10.782541   20.299309
Pt   15.328513   15.074973   17.837043
Pt   16.730320   22.032448   23.666018
Pt   22.445206   22.745553   11.146212
Pt   14.345729   22.803006   24.810861
Pt   17.638416   19.314490   23.817563
Pt   16.881576   26.846472   20.721562
Pt   11.950510   18.606892   18.837493
Pt   14.723410   17.840333   14.781301
Pt   13.194025   20.619654   20.481340
Pt   15.660613   19.922320   19.258375
Pt   31.216780   19.107168   23.431196
Pt   24.747740   12.634586   21.726373
Pt   20.560380   10.617517   19.913158
Pt   15.911149   12.722049   23.710261
Pt   28.134775   20.141347   17.391029
Pt   26.310690   22.219515   21.523741
Pt   30.818133   16.281741   20.634345
Pt   24.113711   16.843353   27.213093
Pt   29.738880   21.057693   24.684230
Pt   28.958467   18.343493   24.770183
Pt   30.077614   21.050675   21.874495
Pt   21.900718   27.834595   16.703118
Pt   28.332089   15.558897   21.839448
Pt   27.826938   12.671360   19.011367
Pt   28.603573   15.476239   18.995142
Pt   21.847481   30.138301   15.286571
