309
Generated with con2xyz
Pt   22.796704   19.893373   11.427373
Pt   22.532613   19.867501   14.111620
Pt   22.251233   19.843030   16.971199
Pt   21.969397   19.819707   19.839063
Pt   21.686331   19.788301   22.722080
Pt   21.408620   19.752950   25.594113
Pt   21.132453   19.721807   28.455253
Pt   20.872127   19.689214   31.139442
Pt   24.906310   20.786951   12.964689
Pt   24.670328   20.775607   15.734773
Pt   24.369798   20.746459   18.619419
Pt   24.089396   20.720247   21.514045
Pt   23.803828   20.683956   24.409134
Pt   23.539740   20.657111   27.293702
Pt   23.236901   20.606692   30.057004
Pt   22.511151   22.303384   12.747284
Pt   22.236532   22.317828   15.513228
Pt   21.954528   22.279534   18.398196
Pt   21.668275   22.249853   21.291646
Pt   21.385616   22.213592   24.190488
Pt   21.104664   22.199712   27.073231
Pt   20.837527   22.127657   29.839257
Pt   20.332099   20.484660   12.513344
Pt   20.021766   20.462565   15.277927
Pt   19.754067   20.428491   18.161643
Pt   19.466494   20.401758   21.055066
Pt   19.187305   20.370818   23.951991
Pt   18.892934   20.349838   26.838536
Pt   18.661356   20.309147   29.608951
Pt   21.386722   17.828824   12.602233
Pt   21.092457   17.762270   15.371589
Pt   20.822319   17.744544   18.250506
Pt   20.536702   17.717053   21.125595
Pt   20.260460   17.689807   24.015919
Pt   19.970118   17.650442   26.902518
Pt   21.401912   15.740600   28.434112
Pt   24.213339   18.018614   12.874799
Pt   23.960815   17.958518   15.646008
Pt   23.659320   17.939394   18.525991
Pt   23.375976   17.916522   21.411953
Pt   23.097222   17.880635   24.298784
Pt   22.834244   17.838803   27.184141
Pt   17.459644   18.257133   28.097794
Pt   27.022631   21.687240   14.629972
Pt   26.783524   21.673459   17.401224
Pt   26.482454   21.640794   20.290996
Pt   26.199481   21.609666   23.198686
Pt   25.932508   21.579797   26.090588
Pt   25.632449   21.525580   28.857327
Pt   24.648279   23.244767   14.334846
Pt   24.378189   23.230867   17.155090
Pt   24.070025   23.186159   20.065792
Pt   23.784211   23.150943   22.992465
Pt   23.520521   23.148996   25.896033
Pt   23.237225   23.095241   28.714369
Pt   22.210214   24.731942   14.191556
Pt   21.936505   24.743396   16.960865
Pt   21.656956   24.708503   19.856957
Pt   21.364720   24.662669   22.753746
Pt   21.084261   24.651790   25.645643
Pt   20.813959   24.584918   28.413499
Pt   20.004455   22.937676   13.876257
Pt   19.718816   22.919303   16.693826
Pt   19.456554   22.864958   19.600278
Pt   19.165053   22.831316   22.533585
Pt   18.859478   22.829805   25.438761
Pt   18.592684   22.790285   28.258939
Pt   17.839359   21.086459   13.719254
Pt   17.531268   21.059747   16.487430
Pt   17.262302   21.023337   19.378961
Pt   16.975793   20.994679   22.286675
Pt   16.678415   20.972727   25.178219
Pt   16.442657   20.934275   27.949264
Pt   18.866159   18.402692   13.722354
Pt   18.568165   18.357413   16.543071
Pt   18.317918   18.337878   19.444601
Pt   18.031208   18.313226   22.365595
Pt   17.721698   18.283115   25.274439
Pt   19.719983   17.652792   29.674312
Pt   19.946063   15.752533   13.887826
Pt   19.646098   15.682963   16.673452
Pt   19.368573   15.651452   19.524388
Pt   19.099599   15.654429   22.419678
Pt   18.813862   15.612155   25.317631
Pt   18.564215   15.611317   28.094962
Pt   22.804395   15.895318   14.096228
Pt   22.521282   15.829299   16.921065
Pt   22.229750   15.814889   19.824490
Pt   21.952585   15.787859   22.705821
Pt   21.675622   15.742205   25.612606
Pt   23.125119   13.878725   27.139476
Pt   25.634961   16.135142   14.442673
Pt   25.378137   16.079461   17.215454
Pt   25.074188   16.065500   20.103625
Pt   24.793991   16.034491   22.984013
Pt   24.244872   15.980130   28.643682
Pt   22.543134   17.836980   29.950080
Pt   26.371919   18.899649   14.461512
Pt   26.104132   18.871247   17.281989
Pt   25.783567   18.850912   20.180663
Pt   25.498264   18.819806   23.106671
Pt   25.251244   18.777024   26.013631
Pt   24.966546   18.742978   28.831468
Pt   29.135259   22.583607   16.310980
Pt   28.897672   22.569027   19.103255
Pt   30.018130   20.623931   23.533090
Pt   28.335773   22.502286   24.854091
Pt   28.030381   22.445948   27.640818
Pt   26.772531   24.142039   15.995744
Pt   26.488446   24.126605   18.825461
Pt   26.159756   24.046839   21.754127
Pt   25.911491   24.065616   24.691738
Pt   25.641738   24.006752   27.528461
Pt   24.344081   25.674801   15.772696
Pt   24.079264   25.650781   18.609234
Pt   23.750764   25.603973   21.560403
Pt   23.503667   25.617717   24.454985
Pt   23.207149   25.566849   27.292836
Pt   21.904115   27.154175   15.647316
Pt   21.631716   27.169553   18.440084
Pt   21.368415   27.164273   21.331888
Pt   23.476160   28.140047   23.035628
Pt   20.802277   27.044106   26.971888
Pt   19.706186   25.369030   15.315983
Pt   19.416191   25.341112   18.145986
Pt   19.169683   25.264659   21.078922
Pt   18.835713   25.276618   24.005661
Pt   18.574570   25.247033   26.838123
Pt   17.500964   23.531559   15.080042
Pt   17.226240   23.513452   17.910363
Pt   16.980494   23.435174   20.843486
Pt   16.647129   23.452069   23.771686
Pt   16.367032   23.409941   26.602795
Pt   15.342666   21.680940   14.944562
Pt   15.031436   21.654150   17.731456
Pt   14.744360   21.623361   20.606107
Pt   14.463157   21.593819   23.481629
Pt   14.227584   21.554932   26.273603
Pt   16.368023   19.015936   14.914620
Pt   16.083454   18.956426   17.752439
Pt   15.853646   18.945532   20.688076
Pt   15.505097   18.903925   23.613494
Pt   15.232663   18.887253   26.444714
Pt   17.426670   16.313133   14.997851
Pt   17.129904   16.260238   17.855070
Pt   16.889446   16.257756   20.741909
Pt   16.564515   16.246638   23.683097
Pt   16.304960   16.212832   26.522828
Pt   19.981922   11.794234   16.699319
Pt   18.149011   13.511985   17.932343
Pt   17.931798   13.567102   20.815432
Pt   16.708085   11.606420   19.435635
Pt   16.238083   11.656108   24.904968
Pt   21.343830   13.816756   15.362341
Pt   21.039674   13.755299   18.223949
Pt   20.738398   13.738661   21.114517
Pt   20.497257   13.693520   24.016878
Pt   20.221467   13.690663   26.860042
Pt   24.249768   14.006396   15.657214
Pt   23.959457   13.946479   18.501841
Pt   23.707388   13.936906   21.402129
Pt   23.394493   13.882202   24.297640
Pt   24.823930   12.052762   25.778757
Pt   27.047419   14.240469   16.034121
Pt   24.114085   10.196358   18.558296
Pt   26.506005   14.119119   21.674958
Pt   24.531660   15.986540   25.875615
Pt   25.945502   14.117330   27.314052
Pt   27.789978   17.011263   16.024537
Pt   27.522281   16.993619   18.856280
Pt   27.175945   16.968705   21.772441
Pt   26.950873   16.928656   24.700093
Pt   26.666013   16.882831   27.528914
Pt   28.492334   19.805892   16.120514
Pt   28.219474   19.766604   18.951358
Pt   27.869710   19.745507   21.872249
Pt   27.647598   19.701102   24.806128
Pt   27.368481   19.674230   27.635044
Pt   31.205591   23.461998   18.036770
Pt   31.070295   23.484831   20.814293
Pt   30.796996   23.447441   23.617577
Pt   30.394991   23.355378   26.370394
Pt   28.883049   25.038826   17.669530
Pt   28.617848   22.537200   21.978031
Pt   28.288607   24.957059   23.416048
Pt   28.036484   24.927716   26.319380
Pt   26.472153   26.581969   17.453756
Pt   26.179981   26.538565   20.338012
Pt   25.885735   26.508767   23.192510
Pt   25.615580   26.474309   26.111513
Pt   24.042600   28.087613   17.217407
Pt   23.759844   28.033415   20.124321
Pt   25.860792   28.939247   21.790375
Pt   23.183129   27.988297   25.839255
Pt   21.588065   29.531480   17.143775
Pt   21.309228   29.659342   19.914728
Pt   18.588357   29.988124   23.893455
Pt   20.722288   29.389176   25.483834
Pt   19.398244   27.788059   16.766368
Pt   18.846337   27.702414   22.515688
Pt   18.804604   30.070534   21.101835
Pt   18.537084   27.691323   25.406849
Pt   17.193239   25.968460   16.536314
Pt   16.921473   25.927741   19.422066
Pt   16.639105   25.897801   22.279371
Pt   16.339157   25.876163   25.163333
Pt   15.006531   24.126162   16.296776
Pt   14.750842   24.082931   19.190868
Pt   14.469247   24.052170   22.045206
Pt   14.154540   24.031490   24.935758
Pt   12.880049   22.259660   16.223196
Pt   12.467955   22.261534   18.974186
Pt   12.189270   22.228856   21.776429
Pt   12.057638   22.164076   24.553154
Pt   13.870226   19.605477   16.134438
Pt   13.616422   19.556810   19.032652
Pt   13.331679   19.527240   21.887248
Pt   13.015437   19.504627   24.777359
Pt   14.920939   16.935991   16.195401
Pt   14.652297   16.881676   19.110694
Pt   14.360431   16.863002   21.965313
Pt   14.060999   16.836060   24.848110
Pt   18.523372   13.716967   15.211558
Pt   15.647100   14.144001   19.117774
Pt   17.667758   13.570898   23.690863
Pt   17.415150   13.566300   26.503439
Pt   21.386183   10.022217   18.284006
Pt   14.312150   12.228653   20.590343
Pt   16.456560   11.527353   22.156902
Pt   15.135350   14.195791   24.944252
Pt   19.063400   11.677810   25.223984
Pt   19.553725   11.626765   19.518931
Pt   19.297357   11.601025   22.386696
Pt   29.970503   13.294241   24.819660
Pt   22.796185   11.943705   16.903726
Pt   22.487595   11.945632   19.820735
Pt   21.103491   9.914357   21.100820
Pt   21.934770   11.846400   25.595817
Pt   26.780950   14.195803   18.836473
Pt   25.426655   12.007725   20.106697
Pt   27.652947   12.397474   25.958644
Pt   23.561788   10.136372   24.195584
Pt   30.516556   13.358116   19.236166
Pt   23.841737   10.085512   21.372319
Pt   28.462794   12.488353   17.655629
Pt   26.226673   14.132664   24.514394
Pt   29.220307   15.146589   17.596961
Pt   28.912834   15.121419   20.481940
Pt   28.635633   15.089005   23.329693
Pt   28.380649   15.049794   26.218584
Pt   29.926441   17.915222   17.701681
Pt   29.630295   17.882292   20.581626
Pt   29.350213   17.849927   23.435105
Pt   29.085424   17.815287   26.317200
Pt   30.607108   20.699288   17.791265
Pt   30.296567   20.658210   20.679418
Pt   32.005859   21.477960   25.118373
Pt   29.767618   20.595523   26.426526
Pt   28.570479   24.992398   20.560257
Pt   30.591545   25.885027   22.213617
Pt   30.290089   25.766108   25.009650
Pt   28.512795   27.377153   19.174176
Pt   28.270095   27.421527   22.002641
Pt   27.962994   27.299778   24.826742
Pt   26.101198   28.897688   18.953076
Pt   30.836735   25.843511   19.409950
Pt   25.607408   28.761001   24.631336
Pt   23.716236   30.339763   18.718654
Pt   23.482637   30.372757   21.450469
Pt   21.049326   29.606931   22.727945
Pt   19.127298   27.731687   19.662279
Pt   19.113937   30.039944   18.296643
Pt   21.074665   27.097337   24.173703
Pt   16.955605   28.296154   18.047067
Pt   16.624825   28.332986   20.860863
Pt   16.400599   28.237252   23.680641
Pt   14.770043   26.473168   17.812357
Pt   14.442696   26.515137   20.627023
Pt   14.213593   26.412148   23.450014
Pt   12.661566   24.650190   17.610200
Pt   12.344367   24.688295   20.402740
Pt   12.110904   24.586317   23.202269
Pt   11.535853   20.169657   17.450291
Pt   11.191342   20.086082   20.238554
Pt   10.982221   20.101404   23.043870
Pt   12.516420   17.556264   17.494835
Pt   12.169254   17.469911   20.308740
Pt   11.961174   17.486439   23.137695
Pt   13.568303   14.985538   17.544508
Pt   13.230647   14.821562   20.376598
Pt   13.014859   14.836613   23.210038
Pt   15.991863   14.345556   16.312810
Pt   14.084730   12.257669   23.327535
Pt   15.441290   14.219303   22.036541
Pt   20.835192   9.963007   23.929197
Pt   25.148297   11.975047   22.961340
Pt   22.214444   11.912501   22.674910
Pt   28.267565   12.341643   20.406124
Pt   27.991629   12.310821   23.217849
Pt   25.655520   12.145965   17.283651
Pt   30.303172   13.298568   22.032880
Pt   31.044443   16.004871   22.138215
Pt   30.691572   15.997158   24.941890
Pt   31.238049   16.061700   19.316653
Pt   31.733169   18.762881   22.237257
Pt   31.377671   18.758315   25.045532
Pt   32.547834   21.547054   19.526352
Pt   31.925098   18.826532   19.411396
Pt   32.351834   21.480624   22.329354
