309
Generated with con2xyz
Pt   10.240333   17.216249   22.230262
Pt   11.921237   15.012404   22.322777
Pt   11.878719   16.731911   20.094760
Pt   12.178121   17.124703   24.161394
Pt   10.332274   20.760875   17.891413
Pt   11.923953   18.531838   17.892626
Pt   12.057215   20.370045   15.761793
Pt   10.221140   18.988803   20.059884
Pt   10.888619   23.296591   23.591378
Pt   12.271965   18.949511   21.912333
Pt   12.323463   20.751416   19.698221
Pt   10.509096   19.366343   24.000583
Pt   10.899362   21.512514   25.749136
Pt   12.517208   19.308411   25.951602
Pt   12.612563   21.137537   23.711362
Pt   12.918683   21.510544   27.643383
Pt   12.332580   22.586170   17.459931
Pt   10.607852   22.917405   19.644424
Pt   10.483395   21.152048   21.827952
Pt   11.002158   25.049440   21.412595
Pt   12.667126   24.766631   19.253293
Pt   12.662569   22.937870   21.498262
Pt   12.906650   23.363846   25.526313
Pt   12.961924   25.158210   23.326308
Pt   13.074457   26.855912   21.090895
Pt   13.702799   12.834590   22.401562
Pt   15.530912   10.750366   22.463953
Pt   15.459519   12.357670   20.254024
Pt   15.757663   12.749484   24.318638
Pt   13.703396   16.315344   17.968394
Pt   15.490506   14.132352   18.048202
Pt   15.537298   15.913923   15.845822
Pt   13.654273   14.532977   20.186156
Pt   14.004848   16.713651   22.004244
Pt   15.795277   14.525855   22.083931
Pt   15.831371   16.300393   19.833981
Pt   13.953956   14.926162   24.236900
Pt   14.298352   17.100317   26.046114
Pt   16.086636   14.915903   26.124287
Pt   16.132820   16.695793   23.927687
Pt   16.423870   17.095972   27.905871
Pt   13.900755   19.959148   13.742957
Pt   17.420146   15.538773   13.844660
Pt   18.191117   23.590503   12.921308
Pt   13.743859   18.123857   15.774535
Pt   14.108879   20.349834   17.531248
Pt   15.885812   18.099059   17.615633
Pt   15.980722   19.945057   15.431920
Pt   14.062439   18.499794   19.741644
Pt   14.481549   20.733863   21.580997
Pt   16.217111   18.511987   21.670824
Pt   16.264921   20.332883   19.428321
Pt   14.361912   18.897492   23.849708
Pt   14.698024   21.132248   25.634295
Pt   16.480483   18.886624   25.722193
Pt   16.568385   20.726704   23.490179
Pt   14.643081   19.297297   27.828072
Pt   15.041486   21.500476   29.413423
Pt   18.957931   21.153492   29.420011
Pt   16.855655   21.110888   27.479433
Pt   21.206768   22.888708   29.083812
Pt   20.039417   21.347434   13.053491
Pt   14.167445   22.178976   15.330889
Pt   14.504801   24.378391   17.115478
Pt   16.288037   22.180541   17.194475
Pt   16.337464   23.961732   15.000597
Pt   14.465227   22.586438   19.316190
Pt   14.797082   24.766175   21.166308
Pt   16.614160   22.548942   21.245518
Pt   16.631331   24.376781   18.990035
Pt   14.764607   22.978662   23.427242
Pt   15.091052   25.157519   25.210585
Pt   16.886116   22.960566   25.307355
Pt   16.925616   24.762214   23.089529
Pt   15.023533   23.357795   27.398398
Pt   17.166473   23.308679   29.158857
Pt   17.230557   25.135224   27.088632
Pt   16.681898   26.149849   16.786362
Pt   14.828517   26.545396   18.930767
Pt   15.234916   28.611583   20.769267
Pt   16.973444   26.536044   20.836871
Pt   17.004198   28.300506   18.592185
Pt   15.128265   26.937483   22.995127
Pt   17.265814   26.919517   24.887613
Pt   17.317727   28.688154   22.680115
Pt   19.551029   30.332715   22.287293
Pt   17.312463   11.950089   18.133888
Pt   19.501579   11.986074   20.019718
Pt   21.380286   11.535896   17.862043
Pt   17.343735   10.288463   20.378100
Pt   17.645459   12.386250   22.151498
Pt   21.578356   10.246157   24.058888
Pt   19.454126   10.194291   22.223156
Pt   17.629233   10.660153   24.308862
Pt   17.898410   12.715939   26.180885
Pt   20.080136   12.753208   27.949430
Pt   19.794143   12.361782   24.024152
Pt   20.411769   14.897378   29.711413
Pt   19.246467   13.421621   13.980595
Pt   19.214391   11.624983   16.081898
Pt   19.758588   19.213092   11.291399
Pt   17.347677   13.718956   15.935746
Pt   17.684592   15.902345   17.696119
Pt   19.538572   13.717046   17.773153
Pt   19.586083   15.536697   15.590908
Pt   17.639162   14.132078   19.901862
Pt   18.010973   16.321171   21.750734
Pt   19.848551   14.186936   21.822245
Pt   19.886363   15.914748   19.589444
Pt   17.939879   14.527718   24.010393
Pt   18.283719   16.688277   25.812927
Pt   20.131167   14.484303   25.864825
Pt   20.186414   16.315514   23.656989
Pt   18.235976   14.866196   27.967501
Pt   18.549487   17.035567   29.725737
Pt   22.864146   18.793738   31.115753
Pt   20.466802   16.646530   27.644052
Pt   20.802963   18.867054   29.344112
Pt   19.574833   17.290511   13.324229
Pt   17.775067   19.495489   13.247093
Pt   21.537340   17.046245   11.440972
Pt   21.890808   20.951856   11.018495
Pt   17.757543   17.718174   15.494936
Pt   18.120653   19.933366   17.323772
Pt   19.936414   17.717795   17.404867
Pt   19.938294   19.493332   15.187114
Pt   18.059223   18.110359   19.522906
Pt   18.410642   20.318499   21.329739
Pt   20.230754   18.098056   21.409464
Pt   20.284461   19.919287   19.194067
Pt   18.362461   18.501052   23.566327
Pt   18.720254   20.703584   25.349471
Pt   20.526867   18.500577   25.457939
Pt   20.572755   20.294389   23.207711
Pt   18.623635   18.896295   27.587655
Pt   18.996390   19.197207   31.350057
Pt   24.801687   18.478278   29.151088
Pt   20.871966   20.732814   27.267220
Pt   16.809177   19.313091   29.640161
Pt   25.216992   22.473390   28.664782
Pt   23.655987   18.776795   11.159467
Pt   20.111561   23.115003   11.007757
Pt   18.137300   21.752926   15.075495
Pt   20.427901   25.296404   12.672847
Pt   16.045722   21.730014   13.259076
Pt   18.477844   23.958249   16.856540
Pt   20.324976   21.722564   16.958756
Pt   20.377808   23.573801   14.763831
Pt   18.457941   22.138795   19.100642
Pt   18.798502   24.325764   20.912528
Pt   20.624444   22.116437   20.996880
Pt   20.668211   23.899000   18.760698
Pt   18.752749   22.528484   23.139810
Pt   19.072875   24.734108   24.974430
Pt   20.914687   22.492591   25.001206
Pt   20.966379   24.309205   22.809266
Pt   19.054465   22.904292   27.180895
Pt   21.251513   24.664484   26.822143
Pt   23.375011   24.644017   28.596226
Pt   21.122884   20.926963   31.089269
Pt   19.400714   25.054820   28.843220
Pt   20.752229   27.375461   14.454060
Pt   18.535686   25.770093   14.690494
Pt   18.887308   27.898739   16.498461
Pt   20.715612   25.730285   16.564679
Pt   17.418591   30.277347   20.464946
Pt   18.830222   26.137753   18.654809
Pt   19.206545   28.244935   20.508288
Pt   21.005177   26.056260   20.556985
Pt   21.054514   27.956986   18.293678
Pt   19.116229   26.510643   22.768355
Pt   19.461466   28.682863   24.547814
Pt   21.304747   26.497207   24.643249
Pt   21.341461   28.232921   22.397674
Pt   19.417758   26.904790   26.753036
Pt   25.324295   29.471939   19.973159
Pt   19.182414   29.948849   18.399363
Pt   21.381835   30.016484   20.173255
Pt   21.657430   30.263532   24.130312
Pt   21.625721   28.587690   26.337396
Pt   19.181448   9.954048   18.289467
Pt   21.290942   9.878468   20.118857
Pt   23.400927   9.926723   21.958444
Pt   21.649085   11.966238   21.896128
Pt   23.522762   11.515793   19.731498
Pt   19.751933   10.694980   26.131410
Pt   21.972327   12.290911   25.924370
Pt   23.821668   11.902538   23.807290
Pt   21.419260   15.157396   13.493219
Pt   21.418140   13.319262   15.651428
Pt   21.775968   15.478735   17.435436
Pt   23.576216   13.296231   17.514398
Pt   23.603561   15.082684   15.316703
Pt   21.736322   13.705784   19.639109
Pt   22.063954   15.904815   21.490584
Pt   23.871064   13.680114   21.569277
Pt   23.927545   15.460243   19.313451
Pt   22.038337   14.100775   23.750245
Pt   22.370785   16.262169   25.555772
Pt   24.172801   14.071069   25.616068
Pt   24.227542   15.853750   23.416749
Pt   22.305323   14.442223   27.713897
Pt   20.738532   17.064153   31.381960
Pt   24.511159   16.250919   27.402230
Pt   17.989826   21.390906   11.289559
Pt   21.838919   19.139486   13.127947
Pt   23.674489   16.879427   13.152191
Pt   25.796551   18.731259   12.905330
Pt   21.794039   17.280203   15.233829
Pt   22.141326   19.508969   17.042542
Pt   23.964782   17.259916   17.094052
Pt   24.021499   19.107289   14.915398
Pt   22.106798   17.695075   19.261877
Pt   22.445312   19.898028   21.075327
Pt   24.253619   17.684167   21.159042
Pt   24.296763   19.494698   18.923303
Pt   22.396541   18.082121   23.309645
Pt   22.721978   20.285279   25.094641
Pt   24.562098   18.042612   25.214023
Pt   24.593004   19.887421   22.974815
Pt   22.711415   18.469152   27.332571
Pt   28.778794   19.856911   26.664066
Pt   26.937581   20.260991   28.682752
Pt   30.573264   19.463044   24.552658
Pt   23.071612   20.724568   29.168937
Pt   15.615583   17.746765   13.765173
Pt   22.279329   23.170369   12.673968
Pt   24.079084   20.964715   12.744821
Pt   22.234034   21.364901   14.850799
Pt   22.568883   23.546270   16.612109
Pt   24.377506   21.339388   16.689376
Pt   24.426075   23.153535   14.513531
Pt   22.496536   21.710626   18.840462
Pt   22.839298   23.899372   20.656334
Pt   24.643252   21.700747   20.738561
Pt   24.712827   23.536452   18.484886
Pt   22.792392   22.104462   22.883568
Pt   23.153708   24.308957   24.717790
Pt   24.952996   22.118733   24.800223
Pt   25.009917   23.918355   22.581284
Pt   23.067532   22.486792   26.930634
Pt   23.479624   26.484596   26.497376
Pt   24.863756   20.276091   26.986292
Pt   25.279441   24.297642   26.585546
Pt   22.609137   25.353558   14.439190
Pt   22.923575   27.486473   16.248510
Pt   24.751341   25.329178   16.288933
Pt   22.893693   25.723238   18.404380
Pt   23.183146   27.841028   20.260964
Pt   25.041709   25.706868   20.331300
Pt   25.094357   27.479045   18.087563
Pt   23.199833   26.086662   22.510607
Pt   23.523682   28.264897   24.292611
Pt   25.337395   26.082507   24.380922
Pt   25.371987   27.862821   22.177011
Pt   21.571986   26.779698   28.441172
Pt   23.286840   29.533137   18.144986
Pt   27.142627   27.390284   20.026323
Pt   23.488619   29.932378   22.041645
Pt   25.591141   11.589124   21.640509
Pt   25.746463   15.063881   17.184213
Pt   25.704227   13.269458   19.408527
Pt   26.040985   15.448861   21.241107
Pt   27.750584   13.349919   21.315489
Pt   27.856415   15.039578   19.080159
Pt   26.003118   13.657580   23.477597
Pt   26.345463   15.841701   25.291185
Pt   28.155742   15.430356   23.154068
Pt   29.991988   18.704025   16.613690
Pt   25.809041   16.873182   14.990270
Pt   26.143216   19.092465   16.770743
Pt   27.912937   16.858869   16.848784
Pt   31.984664   18.705236   18.527777
Pt   26.096386   17.244564   18.978820
Pt   26.420789   19.487241   20.825567
Pt   28.184482   17.231982   20.913144
Pt   28.237960   19.084714   18.643596
Pt   26.398905   17.642191   23.089126
Pt   26.729364   19.877299   24.889966
Pt   30.287166   17.228799   22.845003
Pt   28.535182   19.481297   22.766180
Pt   28.500314   17.643052   24.974494
Pt   26.676875   18.040641   27.089326
Pt   32.270300   19.075600   22.408198
Pt   27.905479   18.714046   14.748625
Pt   26.209186   20.932222   14.578138
Pt   28.310207   20.920133   16.434804
Pt   26.498736   21.330768   18.564167
Pt   26.828357   23.524602   20.411094
Pt   28.586718   21.334602   20.495117
Pt   26.546001   23.134933   16.366990
Pt   26.792325   21.721905   22.669884
Pt   27.126625   23.905604   24.457893
Pt   27.088670   22.103097   26.656711
Pt   28.946509   23.519046   22.323882
Pt   22.658743   16.607047   29.472829
Pt   26.889475   25.310915   18.176709
Pt   28.917545   25.223432   20.101048
Pt   30.668604   23.040725   20.180599
Pt   27.177787   25.698418   22.241949
Pt   29.888529   15.127694   20.990478
Pt   28.902348   21.697288   24.550478
Pt   29.989680   16.833930   18.737132
Pt   30.256591   19.087926   20.587514
Pt   31.935144   16.956129   20.667265
Pt   30.693383   21.321171   22.423807
Pt   30.392187   20.928637   18.318075
Pt   28.655039   23.131292   18.253550
Pt   32.318074   20.826298   20.269213
