309
Generated with con2xyz
Pt   11.296996   16.257455   21.504061
Pt   13.118082   14.172652   21.545294
Pt   12.969099   15.944476   19.362574
Pt   13.231857   16.245072   23.444477
Pt   11.166245   19.928365   17.273857
Pt   12.898904   17.806703   17.213132
Pt   12.915146   19.711007   15.139361
Pt   11.167088   18.087294   19.386995
Pt   11.531181   22.337884   23.022795
Pt   13.211460   18.131663   21.247813
Pt   13.148541   19.996227   19.085868
Pt   11.410057   18.369598   23.328439
Pt   11.632616   20.490344   25.121594
Pt   13.408250   18.393591   25.287470
Pt   13.399655   20.288042   23.107803
Pt   13.628920   20.566299   27.022822
Pt   13.041410   21.893387   16.899096
Pt   11.301078   22.054234   19.085838
Pt   11.281409   20.214672   21.212903
Pt   11.554392   24.164611   20.903672
Pt   13.238674   24.045214   18.751009
Pt   13.343142   22.152717   20.947205
Pt   13.522023   22.478449   24.969471
Pt   13.489441   24.339972   22.829848
Pt   13.509401   26.109747   20.642759
Pt   15.033643   12.120623   21.575526
Pt   16.988732   10.159931   21.593881
Pt   16.822686   11.819695   19.422602
Pt   17.079817   12.118484   23.505968
Pt   14.823668   15.709452   17.230097
Pt   16.752614   13.652144   17.255703
Pt   16.695004   15.491884   15.103815
Pt   14.885131   13.870133   19.400584
Pt   15.085297   16.016891   21.284144
Pt   17.011556   13.952875   21.315383
Pt   16.940450   15.783113   19.108510
Pt   15.144348   14.172502   23.472090
Pt   15.347885   16.315097   25.345101
Pt   17.263764   14.252382   25.373363
Pt   17.200080   16.091906   23.221927
Pt   17.475799   16.396970   27.229477
Pt   14.786908   19.483632   13.119186
Pt   16.644074   17.394379   13.085623
Pt   18.843051   23.403939   12.416302
Pt   14.748507   17.578631   15.093773
Pt   14.958926   19.774105   16.915277
Pt   16.880321   17.640708   16.943948
Pt   16.858270   19.556366   14.818195
Pt   15.028594   17.861545   19.070303
Pt   15.296545   20.068105   20.977657
Pt   17.170717   17.965283   21.008836
Pt   17.106361   19.845601   18.819110
Pt   15.295915   18.168842   23.198586
Pt   15.479674   20.365219   25.050032
Pt   17.406015   18.256923   25.097272
Pt   17.371527   20.148125   22.901016
Pt   15.521358   18.470642   27.175753
Pt   15.701413   20.640382   28.870916
Pt   17.803413   20.789162   30.548422
Pt   17.616544   20.448165   26.956894
Pt   19.790579   22.650074   30.330967
Pt   22.717236   21.057574   10.460345
Pt   14.902409   21.669402   14.769734
Pt   15.092339   23.833928   16.612517
Pt   17.016429   21.754614   16.638595
Pt   16.957966   23.599502   14.496426
Pt   15.163593   21.977409   18.762919
Pt   15.352049   24.123786   20.677838
Pt   17.303852   22.026177   20.703721
Pt   17.205895   23.909393   18.498326
Pt   15.431043   22.273062   22.894186
Pt   15.599713   24.425595   24.722789
Pt   17.542849   22.339072   24.802312
Pt   17.468034   24.201878   22.617703
Pt   15.606625   22.555165   26.837892
Pt   17.689674   22.699229   28.670576
Pt   17.729510   24.517080   26.582424
Pt   17.149081   25.743781   16.343693
Pt   15.284634   25.972306   18.489262
Pt   15.557977   28.016108   20.375585
Pt   17.410029   26.038683   20.408445
Pt   17.352389   27.873288   18.215390
Pt   15.538472   26.269417   22.556683
Pt   17.660749   26.345255   24.453241
Pt   17.609800   28.175547   22.293063
Pt   17.638881   29.827360   20.111326
Pt   18.703234   11.590925   17.300017
Pt   20.690733   9.704378   17.424067
Pt   22.790339   11.431843   17.057108
Pt   18.828793   9.871902   19.503718
Pt   18.992629   11.935569   21.336336
Pt   23.039881   10.003737   23.215434
Pt   20.875938   11.710750   19.203103
Pt   19.077774   10.160323   23.454838
Pt   19.210164   12.182761   25.384625
Pt   21.184850   10.285591   25.292372
Pt   21.127974   12.002256   23.224806
Pt   21.377444   12.313199   27.167657
Pt   18.604313   15.288390   13.044439
Pt   20.569159   13.251195   13.146066
Pt   20.587092   15.082459   11.167784
Pt   18.647891   13.422592   15.144434
Pt   18.827777   15.564748   16.967384
Pt   20.812613   13.505516   17.003969
Pt   20.754328   15.360242   14.844041
Pt   18.882869   13.738241   19.130761
Pt   19.103180   15.897043   21.040691
Pt   21.073500   13.880408   21.063428
Pt   21.010140   15.671451   18.879989
Pt   19.140382   14.040646   23.253737
Pt   19.333608   16.171761   25.108883
Pt   21.322608   14.093463   25.124661
Pt   21.263628   15.974688   22.952704
Pt   19.403366   14.313668   27.239258
Pt   19.658545   16.486210   28.972497
Pt   21.567736   14.449634   28.918608
Pt   21.517722   16.263386   26.936065
Pt   19.830708   20.430599   28.829792
Pt   20.627847   17.266707   12.705096
Pt   18.670650   19.310420   12.631384
Pt   22.551655   17.058272   10.770704
Pt   20.691909   19.198785   10.664346
Pt   18.772610   17.440421   14.831946
Pt   18.991506   19.626047   16.716966
Pt   20.950883   17.521085   16.733542
Pt   20.852591   19.387748   14.600587
Pt   19.044834   17.742468   18.858700
Pt   19.240437   19.920919   20.727691
Pt   21.201494   17.823668   20.761531
Pt   21.146435   19.697358   18.592760
Pt   19.296753   18.051426   22.916549
Pt   19.499240   20.227740   24.791270
Pt   21.448431   18.139908   24.782785
Pt   21.384752   19.996472   22.617512
Pt   19.567164   18.344308   26.958164
Pt   21.862010   22.469559   28.562588
Pt   21.752851   18.362452   28.803408
Pt   21.661827   20.289705   26.708977
Pt   17.665710   18.556596   29.000716
Pt   25.810884   22.262290   28.184331
Pt   24.599702   18.979116   10.552127
Pt   20.833567   21.273507   12.495020
Pt   18.896454   21.509572   14.519946
Pt   20.970540   25.254841   12.235285
Pt   16.808911   21.412093   12.694918
Pt   19.090828   23.679412   16.357895
Pt   21.081311   21.570773   16.420103
Pt   21.022115   23.465607   14.266902
Pt   19.179436   21.801519   18.552588
Pt   19.367133   23.944831   20.435130
Pt   21.334213   21.867636   20.455777
Pt   21.273952   23.717960   18.271599
Pt   19.428805   22.092758   22.614065
Pt   19.605471   24.259094   24.514270
Pt   21.571870   22.144860   24.501566
Pt   21.526722   24.010548   22.353441
Pt   19.694416   22.381064   26.720867
Pt   21.973860   26.410585   28.015668
Pt   23.894378   24.372230   28.135455
Pt   21.769004   24.299451   26.362362
Pt   19.902217   24.562202   28.422355
Pt   21.154431   27.374569   14.061146
Pt   19.046527   25.542170   14.239657
Pt   19.229976   27.662508   16.092309
Pt   21.211140   25.600181   16.106579
Pt   21.339875   29.401891   15.938359
Pt   19.277794   25.803545   18.224384
Pt   19.519040   27.902860   20.138920
Pt   21.465393   25.806252   20.168418
Pt   21.402117   27.687477   18.008913
Pt   19.540639   26.099648   22.351235
Pt   19.742685   28.256032   24.171540
Pt   21.720725   26.181334   24.227052
Pt   21.654745   27.977352   22.028648
Pt   19.807129   26.427118   26.322974
Pt   25.535504   29.541731   19.643713
Pt   19.483945   29.677508   18.016192
Pt   21.591313   29.826801   19.868240
Pt   19.733166   29.969993   21.963468
Pt   21.837178   29.986601   23.806707
Pt   20.630015   11.433219   15.268256
Pt   22.793392   9.714932   19.266578
Pt   24.888181   9.852324   21.118664
Pt   23.010255   11.777522   21.093821
Pt   24.920286   11.503698   18.935213
Pt   20.931829   9.863617   21.363810
Pt   23.297506   12.023390   25.135449
Pt   25.173784   11.803395   23.017669
Pt   22.702209   15.126273   12.789110
Pt   22.728696   13.263999   14.911505
Pt   22.931097   15.412087   16.723837
Pt   24.874950   13.343762   16.770742
Pt   24.824089   15.193517   14.636729
Pt   22.997703   13.581604   18.882890
Pt   23.174253   15.747760   20.791157
Pt   25.120122   13.639314   20.824573
Pt   25.073188   15.482190   18.617774
Pt   23.254795   13.883208   23.002470
Pt   23.444522   16.013046   24.854261
Pt   25.379645   13.942383   24.881351
Pt   25.329314   15.782717   22.726216
Pt   23.493862   14.152538   26.987763
Pt   23.638148   16.325164   28.732743
Pt   25.555933   16.092829   26.740680
Pt   20.801676   23.106510   10.505904
Pt   22.776324   19.180899   12.511467
Pt   24.756891   17.063131   12.495009
Pt   26.747246   19.042298   12.305659
Pt   22.856151   17.272938   14.587370
Pt   23.040733   19.470568   16.450980
Pt   25.008913   17.344390   16.455473
Pt   24.948715   19.247831   14.321011
Pt   23.109004   17.597132   18.613230
Pt   23.295517   19.770474   20.487248
Pt   25.247341   17.673930   20.520014
Pt   25.183902   19.544816   18.340824
Pt   23.359561   17.894724   22.662015
Pt   23.528695   20.067414   24.504805
Pt   25.510094   17.938264   24.587082
Pt   25.436352   19.843768   22.398127
Pt   23.594115   18.197946   26.699924
Pt   29.585549   19.985065   26.123684
Pt   27.700730   20.197169   28.141846
Pt   31.413950   19.765564   24.015012
Pt   23.786967   20.343084   28.536622
Pt   18.787776   21.251120   10.719931
Pt   22.956074   23.247918   12.179063
Pt   24.892773   21.153293   12.194773
Pt   23.020501   21.382339   14.302706
Pt   23.204156   23.534960   16.122487
Pt   25.153983   21.447574   16.154828
Pt   25.092675   23.316700   14.026667
Pt   23.240635   21.642582   18.305445
Pt   23.437767   23.788290   20.186607
Pt   25.378554   21.714052   20.217041
Pt   25.343516   23.604408   18.011944
Pt   23.489158   21.941742   22.362028
Pt   23.701366   24.109980   24.260900
Pt   25.640321   22.043647   24.286310
Pt   25.592373   23.899930   22.122174
Pt   23.715164   22.223930   26.418285
Pt   23.893274   26.261342   26.081310
Pt   25.648415   20.137615   26.413189
Pt   25.815775   24.173657   26.143635
Pt   23.129877   25.392389   13.998249
Pt   23.321167   27.514584   15.848720
Pt   25.276309   25.452860   15.863875
Pt   23.396878   25.655852   17.981052
Pt   23.536820   27.760243   19.898924
Pt   25.518383   25.745580   19.920892
Pt   25.450030   27.585828   17.731457
Pt   23.648880   25.947197   22.102126
Pt   23.826154   28.100225   23.928338
Pt   25.773795   26.029180   23.977909
Pt   25.701921   27.878238   21.814556
Pt   21.905996   28.256860   25.964563
Pt   23.445613   29.536082   17.779618
Pt   27.493515   27.583028   19.666568
Pt   23.694373   29.826812   21.729232
Pt   26.970077   11.660337   20.856625
Pt   26.936073   15.261807   16.500987
Pt   26.989214   13.404729   18.672050
Pt   27.174630   15.553064   20.557959
Pt   29.015482   13.566229   20.592921
Pt   29.027588   15.320111   18.404941
Pt   27.240148   13.702471   22.747283
Pt   27.429196   15.855799   24.620197
Pt   29.273719   15.619224   22.487965
Pt   30.929375   19.184864   16.047545
Pt   26.882080   17.137326   14.347159
Pt   27.063150   19.320508   16.189077
Pt   28.974659   17.205071   16.219248
Pt   32.903698   19.264610   17.978971
Pt   27.128073   17.412225   18.348401
Pt   27.297262   19.620391   20.253948
Pt   29.200705   17.478902   20.296300
Pt   29.146422   19.394582   18.074743
Pt   27.379851   17.715629   22.466922
Pt   27.556177   19.918455   24.329266
Pt   31.286396   17.560501   22.244039
Pt   29.394468   19.697886   22.210892
Pt   29.466136   17.801079   24.368326
Pt   27.613688   18.017357   26.477221
Pt   33.141391   19.547887   21.871557
Pt   28.852641   19.112419   14.167090
Pt   27.015371   21.215730   14.043644
Pt   29.108297   21.291219   15.914091
Pt   27.266847   21.524272   18.043276
Pt   27.442508   23.684669   19.952083
Pt   29.337917   21.613563   19.988709
Pt   27.205435   23.386180   15.893413
Pt   27.513722   21.823753   22.161465
Pt   27.693980   23.972777   24.015469
Pt   27.747244   22.107736   26.174286
Pt   29.542944   23.769451   21.879527
Pt   25.686106   18.283465   28.477121
Pt   27.389498   25.536880   17.765977
Pt   29.409497   25.530176   19.699559
Pt   31.299424   23.463539   19.735430
Pt   27.638220   25.829859   21.841489
Pt   31.036277   15.487563   20.331755
Pt   29.601237   21.885740   24.063634
Pt   31.037788   17.259360   18.122531
Pt   31.146124   19.476038   20.034940
Pt   32.957451   17.456137   20.071462
Pt   31.423407   21.686149   21.936289
Pt   31.172729   21.386044   17.814119
Pt   29.296559   23.474237   17.795863
Pt   33.085636   21.356467   19.779482
