309
Generated with con2xyz
Pt   12.413107   18.263651   22.172617
Pt   14.309032   16.243397   22.189679
Pt   14.242383   18.168271   20.137814
Pt   14.204059   18.168263   24.240344
Pt   12.432010   22.227054   18.215111
Pt   14.250602   20.180809   18.127147
Pt   14.338450   22.234029   16.207271
Pt   12.357823   20.237568   20.185804
Pt   12.259300   22.225282   22.172513
Pt   14.262194   20.213660   22.188093
Pt   14.273801   22.230719   20.171264
Pt   12.324932   20.237983   24.160565
Pt   12.367362   22.225143   26.137537
Pt   14.180239   20.179828   26.256029
Pt   14.238494   22.229928   24.207949
Pt   14.237157   22.229969   28.184759
Pt   14.240149   24.283045   18.131048
Pt   12.347674   24.214748   20.188236
Pt   12.392811   26.188492   22.176828
Pt   14.251715   24.247288   22.190342
Pt   14.221313   26.295149   20.143444
Pt   12.314652   24.212401   24.161975
Pt   14.170444   24.279607   26.256664
Pt   14.184244   26.292098   24.243325
Pt   14.278880   28.219672   22.196160
Pt   16.301379   14.260715   22.211251
Pt   18.331871   12.375749   22.236580
Pt   18.247396   14.181971   20.180764
Pt   18.208425   14.187348   24.282326
Pt   16.250785   18.163020   18.131677
Pt   18.252981   16.169050   18.153321
Pt   18.268338   18.167254   16.155532
Pt   16.233799   16.163810   20.163773
Pt   16.214755   18.166330   22.205528
Pt   18.217158   16.173600   22.226131
Pt   18.226598   18.163926   20.158402
Pt   16.193579   16.165067   24.252972
Pt   16.172073   18.162092   26.286999
Pt   18.174097   16.173321   26.306784
Pt   18.184035   18.162357   24.289833
Pt   18.150501   18.166806   28.305330
Pt   16.340459   22.243929   14.241258
Pt   18.274699   20.194883   14.180489
Pt   18.374488   22.269378   12.379959
Pt   16.252658   20.193592   16.137495
Pt   16.241780   22.236270   18.133699
Pt   18.245745   20.182437   18.135127
Pt   18.261917   22.243218   16.150963
Pt   16.241295   20.171150   20.135949
Pt   16.285887   22.234893   22.204528
Pt   18.238868   20.200790   22.222943
Pt   18.258507   22.239708   20.176409
Pt   16.199548   20.169715   24.274623
Pt   16.164407   22.234482   26.283827
Pt   18.159098   20.177982   26.311582
Pt   18.212072   22.238844   24.268801
Pt   16.145107   20.192052   28.289019
Pt   16.206984   22.234947   30.195273
Pt   18.138166   20.189390   30.294310
Pt   18.143181   22.239235   28.304179
Pt   18.218161   22.240000   32.103948
Pt   18.268627   24.308506   14.184954
Pt   16.242042   24.284766   16.143783
Pt   16.227950   26.314464   18.140546
Pt   18.231199   24.301528   18.143811
Pt   18.241785   26.326518   16.169968
Pt   16.229523   24.300442   20.140642
Pt   16.194282   26.305566   22.209746
Pt   18.228956   24.278488   22.224417
Pt   18.205219   26.320272   20.165502
Pt   16.190002   24.299656   24.275571
Pt   16.153042   26.307762   26.288083
Pt   18.149377   24.300429   26.311868
Pt   18.164573   26.317759   24.291874
Pt   16.135553   24.277281   28.289002
Pt   18.127846   24.290018   30.294574
Pt   18.130546   26.313207   28.305915
Pt   18.221236   28.321935   18.164235
Pt   16.202748   28.312804   20.172361
Pt   16.261771   30.215495   22.219589
Pt   18.186149   28.310630   22.232307
Pt   18.207339   30.307911   20.190295
Pt   16.164144   28.306979   24.257355
Pt   18.144561   28.308685   26.309132
Pt   18.168565   30.298192   24.288510
Pt   18.282461   32.113289   22.245521
Pt   20.280278   14.177137   18.193716
Pt   22.327921   12.357434   18.323851
Pt   22.348511   14.240038   16.300216
Pt   20.323681   12.305544   20.271219
Pt   20.276053   14.233746   22.249381
Pt   22.290547   12.235442   22.274435
Pt   22.312213   14.233226   20.250054
Pt   20.287552   12.317257   24.243273
Pt   20.203098   14.192924   26.316308
Pt   22.255872   12.386723   26.236779
Pt   22.274287   14.239283   24.287090
Pt   22.237206   14.277158   28.262009
Pt   20.310836   18.172312   14.206051
Pt   22.367194   16.209629   14.330659
Pt   22.377361   18.172592   12.384406
Pt   20.301262   16.161916   16.183801
Pt   20.267474   18.171474   18.156571
Pt   22.330575   16.182563   18.190730
Pt   22.348843   18.188455   16.180425
Pt   20.244744   16.189027   20.176495
Pt   20.243559   18.204037   22.242582
Pt   22.294451   16.266049   22.263097
Pt   22.306866   18.212402   20.218553
Pt   20.203875   16.189721   24.313607
Pt   20.183941   18.167499   26.329661
Pt   22.252355   16.185067   26.340381
Pt   22.266664   18.210370   24.304932
Pt   20.188773   16.175508   28.327218
Pt   20.158658   18.182843   30.313161
Pt   22.216236   16.263538   30.250482
Pt   22.229605   18.181401   28.339836
Pt   22.193212   18.288041   32.141335
Pt   20.325887   20.234969   12.282300
Pt   20.335392   22.245287   14.216370
Pt   22.370981   20.232817   14.180041
Pt   22.392290   22.301480   12.222251
Pt   20.289923   20.185571   16.164325
Pt   20.288426   22.243472   18.181092
Pt   22.324978   20.216064   18.209679
Pt   22.369904   22.237485   16.222991
Pt   20.265123   20.211290   20.200887
Pt   20.243754   22.244092   22.244887
Pt   22.273178   20.218298   22.263764
Pt   22.286820   22.248733   20.233248
Pt   20.222330   20.208522   24.283451
Pt   20.193550   22.243214   26.293299
Pt   22.243154   20.210198   26.308810
Pt   22.249619   22.246936   24.296703
Pt   20.156198   20.178898   28.311921
Pt   20.181807   22.244376   30.269383
Pt   22.206522   20.233307   30.288028
Pt   22.220981   22.248527   28.259193
Pt   20.198558   20.257421   32.188246
Pt   22.182028   22.248869   32.284520
Pt   20.354455   24.269860   12.340854
Pt   20.280132   26.333941   14.212956
Pt   22.352817   24.270988   14.257258
Pt   22.339926   26.259065   12.427194
Pt   20.265880   24.308911   16.180521
Pt   20.243164   26.326595   18.166503
Pt   22.309358   24.281175   18.205535
Pt   22.323373   26.332084   16.200848
Pt   20.255124   24.277882   20.202445
Pt   20.222631   26.285864   22.246081
Pt   22.262746   24.278114   22.266056
Pt   22.281334   26.289144   20.221863
Pt   20.212012   24.278564   24.284420
Pt   20.162744   26.322406   26.331380
Pt   22.229380   24.286826   26.311417
Pt   22.242308   26.289992   24.308624
Pt   20.145059   24.309440   28.312740
Pt   20.138379   26.306951   30.312731
Pt   22.197097   24.265226   30.287031
Pt   22.208656   26.317903   28.340533
Pt   20.189379   24.231960   32.187532
Pt   22.172379   26.211131   32.141141
Pt   22.328732   28.278626   14.317709
Pt   20.270008   28.341483   16.193406
Pt   20.241080   30.323214   18.203206
Pt   22.298182   28.329614   18.204754
Pt   22.308522   30.259240   16.303027
Pt   20.212408   28.309045   20.185584
Pt   20.234687   30.264296   22.257237
Pt   22.259370   28.239271   22.268629
Pt   22.274327   30.275000   20.262641
Pt   20.172784   28.303591   24.317711
Pt   20.165557   30.301584   26.318912
Pt   22.221889   28.316477   26.342337
Pt   22.237143   30.264495   24.290787
Pt   20.159173   28.316089   28.327669
Pt   22.185829   28.236964   30.250693
Pt   22.199079   30.225257   28.262888
Pt   22.285522   32.143255   18.331575
Pt   20.278340   32.192973   20.281677
Pt   22.250231   32.267062   22.283480
Pt   20.241493   32.179244   24.248671
Pt   22.213022   32.116445   26.238632
Pt   24.378585   14.180057   18.235979
Pt   24.292880   12.300954   20.309141
Pt   24.306670   14.235760   22.286526
Pt   26.243027   12.370741   22.311637
Pt   26.363019   14.184089   20.257152
Pt   24.255624   12.314597   24.280207
Pt   24.303555   14.200210   26.352930
Pt   26.325080   14.191056   24.358557
Pt   24.430059   18.160864   14.251762
Pt   24.397140   16.163575   16.230211
Pt   24.386044   18.186811   18.195242
Pt   26.400231   16.191986   18.235839
Pt   26.422448   18.192911   16.235661
Pt   24.377015   16.202613   20.216170
Pt   24.336498   18.224119   22.283068
Pt   26.354406   16.187725   22.302113
Pt   26.391477   18.196099   20.241281
Pt   24.339756   16.202744   24.350252
Pt   24.310806   18.180419   26.363442
Pt   26.324468   16.196509   26.379035
Pt   26.356202   18.195349   24.361878
Pt   24.277433   16.185641   28.362376
Pt   24.262040   18.193370   30.349290
Pt   26.303780   18.189927   28.375941
Pt   22.405888   20.160095   10.638848
Pt   24.458265   22.259569   14.155001
Pt   26.427704   20.224117   14.291404
Pt   24.410606   20.162216   12.351359
Pt   24.398174   20.210567   16.187960
Pt   24.349102   22.255527   18.247293
Pt   26.391400   20.205687   18.226743
Pt   26.385517   22.267183   16.244913
Pt   24.335230   20.220554   20.252085
Pt   24.286696   22.247551   22.283496
Pt   26.352145   20.242597   22.301598
Pt   26.335437   22.259483   20.285438
Pt   24.298374   20.220396   24.314229
Pt   24.282604   22.253994   26.323635
Pt   26.322253   20.203004   26.375641
Pt   26.300055   22.256850   24.318164
Pt   24.292809   20.192040   28.346640
Pt   24.221356   22.254377   30.305934
Pt   26.268980   20.210365   30.367478
Pt   26.297520   22.260384   28.373581
Pt   24.175958   20.265501   32.226510
Pt   26.139235   22.256748   32.187486
Pt   24.323373   24.363550   12.393023
Pt   24.400981   26.360671   14.250859
Pt   26.387452   24.306434   14.267925
Pt   24.396006   24.305788   16.205832
Pt   24.360798   26.329886   18.204349
Pt   26.386316   24.324886   18.240300
Pt   26.390450   26.338855   16.241126
Pt   24.313855   24.288356   20.248564
Pt   24.303942   26.293013   22.287128
Pt   26.298732   24.276507   22.303629
Pt   26.362472   26.327262   20.247908
Pt   24.278901   24.285205   24.321212
Pt   24.287789   26.328058   26.365394
Pt   26.317859   24.317453   26.371542
Pt   26.327626   26.322343   24.366218
Pt   24.284453   24.316226   28.344470
Pt   24.239724   26.315311   30.349477
Pt   26.251754   24.308931   30.375465
Pt   26.278741   26.332089   28.374489
Pt   24.161825   24.241221   32.230026
Pt   24.359471   28.356415   16.234465
Pt   24.342181   30.333168   18.244321
Pt   26.366334   28.333508   18.242498
Pt   24.345906   28.311864   20.226283
Pt   24.276779   30.269887   22.294482
Pt   26.338461   28.320932   22.310263
Pt   26.333990   30.324366   20.268598
Pt   24.309444   28.308193   24.354013
Pt   24.267662   30.310335   26.355549
Pt   26.294143   28.323266   26.381355
Pt   26.297854   30.316806   24.362559
Pt   24.246263   28.325279   28.363996
Pt   24.256625   32.204386   20.319798
Pt   26.210904   32.137778   22.319112
Pt   24.220134   32.190189   24.285013
Pt   28.262009   14.261731   22.323973
Pt   28.398189   18.209403   18.252437
Pt   28.362597   16.171832   20.274301
Pt   28.345130   18.185366   22.319213
Pt   30.234388   16.244055   22.339511
Pt   30.334550   18.179562   20.271764
Pt   28.324394   16.174717   24.370764
Pt   28.322140   18.209581   26.396948
Pt   30.294655   18.178443   24.408742
Pt   28.342434   22.273621   14.417040
Pt   28.424969   20.224365   16.264839
Pt   28.373951   22.274874   18.282191
Pt   30.358374   20.274238   18.318765
Pt   30.244387   22.300266   16.362091
Pt   28.383083   20.240931   20.259066
Pt   28.379920   22.308651   22.321228
Pt   30.262625   20.248380   22.337369
Pt   30.437412   22.328302   20.267045
Pt   28.348467   20.238202   24.381320
Pt   28.301168   22.267236   26.361186
Pt   30.278604   20.269843   26.369195
Pt   30.400036   22.324873   24.415979
Pt   28.302977   20.220891   28.389721
Pt   28.183014   22.262542   30.319621
Pt   30.110342   22.284061   28.338130
Pt   28.387697   24.337275   16.243237
Pt   28.382716   26.341511   18.271412
Pt   30.268736   24.322978   18.287539
Pt   28.380108   24.292928   20.299685
Pt   28.326182   26.282634   22.325649
Pt   30.403899   24.297189   22.341996
Pt   30.255507   26.294495   20.341795
Pt   28.345632   24.288341   24.347601
Pt   28.311426   26.329858   26.384700
Pt   30.193425   24.308357   26.402644
Pt   30.219294   26.287489   24.346877
Pt   28.278218   24.322008   28.408550
Pt   28.352094   28.336326   20.282984
Pt   28.239991   30.252161   22.332752
Pt   30.155002   28.245773   22.346525
Pt   28.316092   28.329239   24.376753
Pt   32.116812   18.256918   22.357026
Pt   32.180242   20.204943   20.411602
Pt   32.205580   22.149628   22.358258
Pt   32.139613   20.202213   24.304840
