309
Generated with con2xyz
Pt   24.330657   21.196449   11.571173
Pt   22.025464   20.491160   10.231521
Pt   21.984275   20.475117   15.808630
Pt   21.964827   20.465207   18.688921
Pt   21.944147   20.452720   21.578190
Pt   22.053814   27.701796   25.811238
Pt   18.089692   19.278394   27.316419
Pt   23.274062   18.410880   28.645680
Pt   22.004714   20.483445   12.930536
Pt   24.294268   21.175648   20.157297
Pt   24.313778   21.186904   17.254915
Pt   28.992409   25.007553   21.623690
Pt   21.990707   22.915627   20.148239
Pt   24.261576   21.142711   25.932879
Pt   28.885249   22.588514   25.884714
Pt   24.398603   23.663534   12.948300
Pt   22.036368   22.941494   14.344748
Pt   22.010835   22.921299   17.247534
Pt   22.077292   25.372870   15.798217
Pt   23.319856   18.416519   25.906291
Pt   19.623310   23.691369   27.346208
Pt   24.218123   21.131502   28.673257
Pt   19.723184   21.281002   11.534264
Pt   19.664591   21.287227   14.316699
Pt   26.776916   29.074947   17.377123
Pt   19.636063   21.271560   20.118332
Pt   19.621381   21.261333   23.016841
Pt   19.592424   21.221196   28.643753
Pt   14.996454   22.806983   25.787233
Pt   22.059301   22.911786   11.559946
Pt   20.505974   18.519565   14.309912
Pt   20.501720   18.520120   17.210319
Pt   20.480831   18.506327   20.112306
Pt   21.928908   20.442141   24.462407
Pt   19.692092   26.153915   25.926742
Pt   25.715991   19.115804   24.511284
Pt   28.091797   19.895002   14.391628
Pt   23.399284   18.455063   14.348239
Pt   23.374840   18.452523   17.248616
Pt   23.360671   18.433284   20.140147
Pt   20.466781   18.497310   23.013462
Pt   19.631096   23.734175   24.503112
Pt   21.803701   16.448028   27.325335
Pt   28.080711   19.860548   17.260846
Pt   32.503403   21.426016   17.377413
Pt   26.652612   21.899298   13.028135
Pt   28.051230   19.812004   20.138066
Pt   22.032442   25.373561   21.611817
Pt   24.291581   23.603060   27.374143
Pt   24.347307   21.200439   14.356690
Pt   24.461633   28.526745   15.913003
Pt   24.344755   23.643563   18.703463
Pt   29.039796   25.071017   15.865577
Pt   19.908741   30.972511   20.036705
Pt   25.638775   19.120504   27.368547
Pt   22.100925   25.346448   13.009651
Pt   22.127966   27.802781   17.294508
Pt   19.675532   23.737896   18.674270
Pt   24.363333   26.119300   20.169086
Pt   29.018656   27.436038   17.377375
Pt   21.996472   25.297076   27.279672
Pt   19.723715   23.745311   12.905134
Pt   19.689325   23.752377   15.743019
Pt   19.657686   21.281460   17.218473
Pt   17.385257   26.940417   24.494609
Pt   17.290159   22.050180   24.461335
Pt   21.957809   22.890026   25.924812
Pt   17.400205   22.073998   12.959459
Pt   17.344968   22.082403   15.743119
Pt   17.337171   22.085092   18.653304
Pt   17.319915   22.076025   21.554521
Pt   17.304249   22.014834   27.246766
Pt   21.935588   22.861484   28.661202
Pt   20.547200   18.558699   11.528121
Pt   18.188057   19.332425   12.881480
Pt   18.156534   19.322094   15.716013
Pt   18.150815   19.314404   21.567549
Pt   20.437263   18.486834   25.908326
Pt   18.948588   16.567454   27.244518
Pt   20.403448   14.562547   14.304629
Pt   19.048818   16.618766   12.941067
Pt   20.402170   14.545365   17.152439
Pt   18.996066   16.573795   21.557307
Pt   18.854089   12.595189   24.419797
Pt   19.600238   21.244342   25.908866
Pt   24.762973   16.476000   13.018022
Pt   21.899055   16.476698   15.738875
Pt   21.882801   16.471710   21.567878
Pt   29.431925   17.797459   18.656935
Pt   20.320688   14.514679   25.880020
Pt   16.620366   17.354294   23.013641
Pt   23.395261   18.495282   11.562040
Pt   29.343249   17.860936   24.627349
Pt   21.895521   16.484216   18.662231
Pt   25.706440   19.132685   21.607924
Pt   24.643309   16.406673   27.250214
Pt   23.344467   18.430571   23.017288
Pt   25.749347   19.184254   12.940115
Pt   29.358079   17.892308   15.851899
Pt   27.096350   17.155520   17.273756
Pt   28.974988   22.548474   23.054247
Pt   28.079911   19.808730   23.075271
Pt   27.977230   19.877565   25.980622
Pt   26.675133   21.896819   15.817042
Pt   31.526196   18.597886   23.177299
Pt   28.995258   25.024999   24.520499
Pt   22.041932   25.353652   18.714572
Pt   30.416781   20.463147   18.715546
Pt   26.760730   26.806458   15.845615
Pt   31.201229   23.286953   24.400932
Pt   19.661421   23.730265   21.587192
Pt   22.106252   27.828553   20.181678
Pt   26.716487   26.756674   24.532272
Pt   24.433948   26.117475   14.404762
Pt   24.423182   26.122100   17.263076
Pt   17.360629   24.539454   20.114284
Pt   24.347685   26.069024   25.938743
Pt   30.376314   20.504302   21.578101
Pt   12.945639   28.413875   21.488442
Pt   22.017601   25.355206   24.479502
Pt   24.328496   23.630488   21.620159
Pt   17.408728   29.298624   23.014788
Pt   26.726750   26.766120   18.758262
Pt   17.447098   26.983414   15.763029
Pt   19.792897   28.599352   18.709158
Pt   24.367556   26.108005   23.067342
Pt   19.716783   26.196773   23.053890
Pt   17.309000   24.484335   25.903806
Pt   15.146878   27.747361   17.169892
Pt   15.021907   25.283470   21.577966
Pt   12.734945   23.598166   24.269590
Pt   15.092343   27.708480   23.053906
Pt   21.905768   20.428707   27.398596
Pt   16.687327   17.380555   14.301756
Pt   15.875406   20.124064   20.086632
Pt   11.382438   21.669674   17.239469
Pt   15.119497   15.410012   24.384584
Pt   15.001422   25.265600   24.458677
Pt   15.077011   22.860019   14.391693
Pt   12.796656   23.639880   15.882389
Pt   16.697093   17.384119   20.081321
Pt   18.098704   19.289205   24.479803
Pt   16.606818   17.335867   25.854817
Pt   15.837076   20.110604   17.148396
Pt   16.658564   17.377054   17.146454
Pt   18.169273   19.325420   18.631355
Pt   15.798104   20.087641   23.021059
Pt   13.475569   20.877029   24.409200
Pt   15.178749   15.444496   15.738968
Pt   17.543084   14.653699   20.075674
Pt   16.034291   12.765910   15.784657
Pt   13.729475   13.528164   22.875050
Pt   21.845345   16.441941   24.486019
Pt   19.012889   16.584038   15.723185
Pt   17.413774   10.727578   17.130121
Pt   21.756037   12.532468   21.537435
Pt   23.070320   10.652816   22.915151
Pt   20.364935   14.522917   23.036389
Pt   23.298080   14.480393   14.351617
Pt   17.520981   14.648027   17.153971
Pt   24.779182   16.388861   21.573603
Pt   18.676673   8.840339   21.447265
Pt   23.207080   14.426240   25.870747
Pt   23.327256   14.439463   20.119720
Pt   28.493493   15.140935   21.597327
Pt   29.482992   17.799544   21.522977
Pt   32.480735   21.255032   23.017335
Pt   26.005582   14.426701   25.755859
Pt   21.913977   16.506001   12.903194
Pt   27.121285   17.158073   14.369110
Pt   30.561221   15.993477   23.158298
Pt   29.021011   22.529349   20.168494
Pt   27.009905   17.084336   25.951321
Pt   26.641365   21.871790   18.721322
Pt   25.750071   19.170211   15.777301
Pt   25.693410   19.159899   18.710638
Pt   30.329059   20.600543   24.574285
Pt   24.328391   23.633128   24.530703
Pt   26.638544   21.839242   21.612987
Pt   31.208756   25.755723   17.400138
Pt   21.976650   22.900113   23.033938
Pt   31.240613   23.355780   15.977964
Pt   26.708675   24.349379   17.241595
Pt   28.993103   27.397351   23.026645
Pt   26.211500   14.358699   20.135653
Pt   24.281867   21.155394   23.042708
Pt   26.798374   29.124228   20.207586
Pt   26.706853   26.750186   21.624120
Pt   29.004967   25.035849   18.766942
Pt   26.618218   21.849847   24.511748
Pt   26.654954   24.281887   20.182293
Pt   15.193479   29.992331   21.520766
Pt   24.456875   28.423749   24.464210
Pt   17.502590   29.388730   17.282744
Pt   24.470271   28.619552   18.755206
Pt   12.855783   26.089992   17.244327
Pt   19.770781   26.182180   14.342220
Pt   29.051600   27.486642   20.208960
Pt   22.151034   27.778360   14.470988
Pt   22.102615   30.211449   21.434779
Pt   12.973632   28.428304   18.706390
Pt   17.331272   24.536812   23.053047
Pt   17.392067   24.536978   14.321428
Pt   12.632244   23.664504   18.648489
Pt   19.883384   30.898349   17.289327
Pt   19.701618   28.506877   24.467061
Pt   15.067126   25.312536   15.741335
Pt   17.438688   26.992187   18.636256
Pt   17.365671   24.554200   17.169977
Pt   11.287972   21.632452   20.057400
Pt   13.538676   20.915434   15.731638
Pt   14.991260   22.879156   20.089476
Pt   12.612135   23.649132   21.500877
Pt   15.220879   30.006175   18.735066
Pt   14.341462   18.169256   18.634098
Pt   14.321900   18.157396   21.500860
Pt   14.290126   18.137876   24.392477
Pt   17.483429   14.626348   22.996145
Pt   15.862161   20.129763   14.303951
Pt   15.020499   22.863162   17.196125
Pt   15.781510   20.082999   25.861912
Pt   12.912956   16.245157   22.880569
Pt   18.914438   12.630858   15.731023
Pt   12.846599   16.237874   20.049670
Pt   15.144430   15.441502   21.496506
Pt   17.473732   14.641016   25.783856
Pt   17.552030   14.684418   14.364312
Pt   20.392929   14.572561   20.095750
Pt   15.977147   12.732190   24.329512
Pt   18.911858   12.599778   21.555836
Pt   18.931290   12.611441   18.597573
Pt   14.592143   10.875379   22.816893
Pt   14.479491   10.851360   20.039811
Pt   20.417376   18.486211   28.643005
Pt   24.597533   12.528283   15.854910
Pt   20.286220   10.634958   17.231109
Pt   24.660267   12.415636   21.552735
Pt   23.261649   14.432900   23.009888
Pt   28.458584   15.195523   18.692964
Pt   24.771945   16.436165   15.819847
Pt   17.400153   10.785314   20.059144
Pt   21.775106   12.545381   18.655477
Pt   24.774910   16.396870   18.708886
Pt   26.111719   14.496180   14.519445
Pt   26.539689   21.858127   27.317937
Pt   24.536079   12.481723   24.369970
Pt   32.560507   21.355904   20.167259
Pt   23.154122   10.611189   20.096080
Pt   26.669382   24.318239   23.113399
Pt   28.362080   15.158105   24.464695
Pt   28.394114   15.265109   15.888125
Pt   18.957336   16.552910   24.463071
Pt   24.730253   16.401090   24.437339
Pt   27.136581   17.103511   23.037070
Pt   29.022403   22.576204   17.318397
Pt   31.361559   23.396866   18.794238
Pt   23.112078   10.683969   17.273717
Pt   31.358286   23.340641   21.626899
Pt   30.377954   20.622896   15.864456
Pt   24.435537   28.622962   21.627548
Pt   31.186917   25.701598   23.024687
Pt   19.770627   28.717102   21.653071
Pt   28.975446   22.606396   14.497353
Pt   26.645454   24.311338   25.960554
Pt   19.731157   26.182618   20.156997
Pt   31.240684   25.802958   20.223095
Pt   17.510316   29.490987   20.147487
Pt   19.789641   28.604754   15.796888
Pt   22.112014   30.112391   15.927274
Pt   24.386728   23.669622   15.785926
Pt   22.161422   30.259029   18.684727
Pt   19.735001   26.181526   17.197001
Pt   26.745808   29.044092   23.026410
Pt   17.436121   26.988159   21.602284
Pt   12.096732   18.965244   22.885465
Pt   15.171315   27.670636   20.114997
Pt   12.808575   26.057704   22.926328
Pt   26.726681   24.357593   14.392272
Pt   22.086961   27.916511   23.069811
Pt   12.721305   26.083400   20.085828
Pt   15.041057   25.299364   18.622112
Pt   11.339317   21.643019   22.875817
Pt   13.543599   20.904381   18.638989
Pt   14.982822   22.837666   22.982999
Pt   12.033964   18.952099   20.053526
Pt   12.138365   18.991047   17.222049
Pt   19.012989   16.584819   18.629861
Pt   13.523207   20.891661   21.505011
Pt   12.952779   16.269208   17.219138
Pt   15.163639   15.453119   18.628837
Pt   13.665949   13.539347   20.045097
Pt   15.991456   12.744752   21.498715
Pt   15.937141   8.972033   18.662873
Pt   13.768332   13.551331   17.215650
Pt   14.350702   18.173448   15.739923
Pt   20.343091   10.528581   20.077236
Pt   17.373519   10.702158   22.985876
Pt   15.917318   8.960127   21.419859
Pt   16.010405   12.755857   18.616930
Pt   18.696924   8.854268   18.668364
Pt   14.629594   10.897647   17.264397
Pt   21.776639   12.534601   15.757343
Pt   20.244920   10.607461   22.921231
Pt   24.677850   12.429750   18.679729
Pt   26.161029   14.336407   22.985207
Pt   21.714100   12.493464   24.429475
Pt   27.127128   17.099366   20.149586
Pt   26.194542   14.360546   17.284792
Pt   23.294662   14.456711   17.220320
