309
Generated with con2xyz
Pt   10.246910   17.185266   22.227569
Pt   11.926188   14.982396   22.315556
Pt   11.886340   16.707267   20.090848
Pt   12.180327   17.090977   24.161796
Pt   10.343608   20.745036   17.899657
Pt   11.933078   18.514723   17.893865
Pt   12.067906   20.358070   15.768144
Pt   10.230139   18.965509   20.062092
Pt   10.898456   23.274372   23.596377
Pt   12.277612   18.920893   21.915819
Pt   12.332963   20.729813   19.706258
Pt   10.514540   19.334653   24.001718
Pt   10.901978   21.482927   25.751071
Pt   12.517190   19.275571   25.955078
Pt   12.616775   21.109429   23.717113
Pt   12.915672   21.478040   27.648506
Pt   12.344201   22.570949   17.469467
Pt   10.622901   22.901860   19.654293
Pt   10.493682   21.127621   21.833266
Pt   11.017296   25.032483   21.421875
Pt   12.684843   24.751328   19.264300
Pt   12.674859   22.917631   21.508105
Pt   12.908700   23.337213   25.533741
Pt   12.973070   25.138747   23.337184
Pt   13.086531   26.842607   21.100990
Pt   13.708108   12.806284   22.389573
Pt   15.535613   10.722558   22.448406
Pt   15.466680   12.336228   20.241482
Pt   15.758755   12.716967   24.310127
Pt   13.712691   16.297536   17.963545
Pt   15.500580   14.116237   18.039391
Pt   15.550225   15.903793   15.841669
Pt   13.661660   14.510148   20.177943
Pt   14.009059   16.685187   22.003703
Pt   15.799529   14.499211   22.079627
Pt   15.837977   16.278412   19.832926
Pt   13.956168   14.892904   24.232914
Pt   14.297320   17.065285   26.049550
Pt   16.084431   14.881034   26.123907
Pt   16.132924   16.664682   23.931021
Pt   16.419209   17.060238   27.910457
Pt   13.912359   19.951091   13.748188
Pt   17.436260   15.534049   13.841534
Pt   18.206050   23.576187   12.930245
Pt   13.754837   18.111984   15.775212
Pt   14.118548   20.332772   17.537970
Pt   15.894777   18.082813   17.618762
Pt   15.991865   19.932892   15.438276
Pt   14.069017   18.476527   19.744749
Pt   14.486189   20.707193   21.590081
Pt   16.220445   18.485545   21.676808
Pt   16.271862   20.311220   19.437402
Pt   14.362125   18.865263   23.855722
Pt   14.696764   21.101284   25.641707
Pt   16.478377   18.853843   25.729357
Pt   16.568468   20.696735   23.501126
Pt   14.639678   19.263081   27.833946
Pt   15.035260   21.465793   29.421111
Pt   18.948875   21.119387   29.431668
Pt   16.850997   21.078099   27.489193
Pt   21.196572   22.854661   29.102097
Pt   20.054838   21.334477   13.063924
Pt   14.179993   22.166635   15.340287
Pt   14.516122   24.361484   17.126391
Pt   16.300285   22.163409   17.204680
Pt   16.353830   23.948928   15.015071
Pt   14.473344   22.565133   19.326984
Pt   14.806638   24.751019   21.179350
Pt   16.615678   22.523205   21.260134
Pt   16.637672   24.350178   19.004616
Pt   14.769016   22.953993   23.438792
Pt   15.094328   25.132792   25.222812
Pt   16.886348   22.931828   25.320515
Pt   16.931366   24.737646   23.107366
Pt   15.019851   23.326593   27.407234
Pt   17.158651   23.276871   29.168505
Pt   17.226980   25.106892   27.099657
Pt   16.688972   26.135605   16.809601
Pt   14.855682   26.537455   18.937198
Pt   15.249722   28.526904   20.786028
Pt   17.002337   26.506102   20.854708
Pt   17.053540   28.270209   18.634709
Pt   15.145582   26.926294   23.012354
Pt   17.265823   26.904677   24.895870
Pt   17.342187   28.653044   22.676180
Pt   19.606354   30.291763   22.397303
Pt   17.321575   11.934614   18.121972
Pt   19.506885   11.964871   20.012760
Pt   21.389259   11.520647   17.856925
Pt   17.349505   10.266777   20.362461
Pt   17.648977   12.359697   22.143911
Pt   21.573437   10.215060   24.055995
Pt   19.455103   10.167672   22.213035
Pt   17.629586   10.629000   24.299064
Pt   17.893308   12.681887   26.178092
Pt   20.069644   12.716417   27.952271
Pt   19.792315   12.331497   24.022726
Pt   20.401022   14.859285   29.719438
Pt   19.262858   13.416816   13.975104
Pt   19.226876   11.614895   16.072353
Pt   19.778647   19.206358   11.297852
Pt   17.360767   13.709186   15.927935
Pt   17.694424   15.887167   17.695906
Pt   19.548199   13.702024   17.770422
Pt   19.599546   15.526972   15.592302
Pt   17.646124   14.111404   19.897743
Pt   18.014128   16.295793   21.754363
Pt   19.850982   14.160995   21.823436
Pt   19.892512   15.895096   19.594531
Pt   17.939238   14.497458   24.010141
Pt   18.281263   16.655320   25.818132
Pt   20.126007   14.450169   25.869982
Pt   20.185751   16.285507   23.664343
Pt   18.228125   14.830325   27.970693
Pt   18.541712   16.998394   29.733635
Pt   22.851381   18.756867   31.131144
Pt   20.459738   16.611079   27.653476
Pt   20.794313   18.831828   29.356431
Pt   19.593499   17.284961   13.329697
Pt   17.791638   19.486985   13.254326
Pt   21.559058   17.041977   11.447119
Pt   21.912895   20.941907   11.031149
Pt   17.770575   17.708104   15.498433
Pt   18.130129   19.916487   17.333530
Pt   19.946261   17.702506   17.412732
Pt   19.953289   19.483213   15.199141
Pt   18.065456   18.089778   19.530124
Pt   18.414219   20.294844   21.341626
Pt   20.233905   18.073765   21.420388
Pt   20.291446   19.898295   19.208251
Pt   18.362595   18.471664   23.574817
Pt   18.717920   20.670786   25.362903
Pt   20.523858   18.468137   25.470159
Pt   20.572981   20.266782   23.222990
Pt   18.617873   18.861744   27.596906
Pt   18.986589   19.160708   31.360455
Pt   24.791276   18.440931   29.170599
Pt   20.866276   20.700928   27.282241
Pt   16.803055   19.276727   29.648365
Pt   25.207686   22.439412   28.690678
Pt   23.680683   18.770012   11.174721
Pt   20.131485   23.104315   11.020983
Pt   18.150874   21.740080   15.088796
Pt   20.447582   25.279237   12.693649
Pt   16.061172   21.719827   13.268832
Pt   18.491313   23.948932   16.874025
Pt   20.335111   21.709122   16.979238
Pt   20.390236   23.553452   14.781161
Pt   18.467159   22.117846   19.113303
Pt   18.802903   24.288674   20.934750
Pt   20.630282   22.093014   21.012982
Pt   20.673672   23.895657   18.779457
Pt   18.752643   22.498356   23.158986
Pt   19.070542   24.714621   24.988037
Pt   20.911612   22.463799   25.020723
Pt   20.963739   24.282995   22.838292
Pt   19.049324   22.874172   27.192714
Pt   21.246084   24.635106   26.841537
Pt   23.367764   24.607174   28.622949
Pt   21.111882   20.890658   31.102797
Pt   19.392283   25.017742   28.865455
Pt   20.780499   27.423224   14.459521
Pt   18.554284   25.743168   14.695818
Pt   18.873919   27.895903   16.483574
Pt   20.725205   25.719579   16.564680
Pt   21.116694   29.481754   16.272954
Pt   18.823475   26.122784   18.691572
Pt   19.133923   28.344682   20.529668
Pt   20.981046   26.041572   20.614065
Pt   21.056158   27.835992   18.420487
Pt   19.116182   26.507607   22.773237
Pt   19.453984   28.653749   24.588081
Pt   21.302233   26.473545   24.664477
Pt   21.339487   28.207156   22.413240
Pt   19.412869   26.871191   26.781028
Pt   25.309942   29.458677   19.991202
Pt   19.314275   29.907272   18.288703
Pt   21.377101   29.997853   20.218027
Pt   21.678381   30.226567   24.185337
Pt   21.628152   28.546185   26.380459
Pt   19.189906   9.938236   18.275065
Pt   21.294662   9.857087   20.110423
Pt   23.398889   9.899279   21.956672
Pt   21.649115   11.939859   21.895935
Pt   23.526231   11.494678   19.733804
Pt   19.745619   10.661107   26.128262
Pt   21.965353   12.256079   25.928361
Pt   23.816363   11.870625   23.812396
Pt   21.437150   15.151944   13.496830
Pt   21.431188   13.309226   15.650537
Pt   21.785427   15.463714   17.442357
Pt   23.584895   13.280465   17.520186
Pt   23.617436   15.071751   15.326410
Pt   21.741468   13.685343   19.642128
Pt   22.066400   15.879725   21.500053
Pt   23.871194   13.654404   21.578540
Pt   23.933096   15.439936   19.325823
Pt   22.035627   14.070523   23.757150
Pt   22.365771   16.228951   25.568000
Pt   24.164695   14.036144   25.628318
Pt   24.224726   15.824214   23.432201
Pt   22.295321   14.404737   27.724024
Pt   20.726734   17.026887   31.392227
Pt   24.501439   16.214146   27.418348
Pt   18.006956   21.380712   11.296929
Pt   21.857530   19.130145   13.139377
Pt   23.692725   16.871348   13.164744
Pt   25.816977   18.720218   12.927617
Pt   21.808499   17.270231   15.244617
Pt   22.152064   19.494644   17.059643
Pt   23.974810   17.244862   17.110517
Pt   24.036659   19.094092   14.934180
Pt   22.113681   17.675633   19.275390
Pt   22.448943   19.874856   21.093343
Pt   24.256653   17.660109   21.177511
Pt   24.303523   19.476584   18.945013
Pt   22.395813   18.053932   23.324029
Pt   22.718530   20.255522   25.112999
Pt   24.556463   18.011637   25.233626
Pt   24.592903   19.860877   22.997049
Pt   22.703854   18.434687   27.347748
Pt   28.769803   19.823624   26.696007
Pt   26.926381   20.226617   28.710126
Pt   30.566820   19.432230   24.590211
Pt   23.063048   20.689318   29.186463
Pt   15.629873   17.740080   13.765402
Pt   22.297346   23.154283   12.690313
Pt   24.099421   20.952538   12.765823
Pt   22.247806   21.349800   14.869220
Pt   22.577242   23.529176   16.633108
Pt   24.389132   21.320760   16.712821
Pt   24.442315   23.135004   14.538428
Pt   22.500993   21.696070   18.861890
Pt   22.837126   23.880769   20.684262
Pt   24.645425   21.678443   20.764502
Pt   24.725786   23.507010   18.514855
Pt   22.792144   22.079215   22.906161
Pt   23.152607   24.282603   24.741845
Pt   24.950909   22.090355   24.824746
Pt   25.011866   23.891637   22.608401
Pt   23.061738   22.455828   26.950404
Pt   23.476052   26.449009   26.528314
Pt   24.856103   20.244231   27.008404
Pt   25.276217   24.266742   26.612791
Pt   22.619551   25.324779   14.455645
Pt   22.961620   27.471914   16.253092
Pt   24.773845   25.296259   16.320441
Pt   22.915106   25.679278   18.436291
Pt   23.202780   27.818063   20.294091
Pt   25.050833   25.680359   20.363216
Pt   25.093367   27.463905   18.129768
Pt   23.203104   26.061341   22.537476
Pt   23.530414   28.226697   24.322022
Pt   25.340050   26.053938   24.408984
Pt   25.378633   27.845454   22.202027
Pt   21.563809   26.738508   28.477153
Pt   23.214203   29.536905   18.132464
Pt   27.139816   27.378433   20.057256
Pt   23.492412   29.907547   22.076101
Pt   25.589579   11.561901   21.648422
Pt   25.755674   15.047273   17.200328
Pt   25.707999   13.247929   19.420908
Pt   26.041438   15.422709   21.259865
Pt   27.749619   13.322143   21.333779
Pt   27.861323   15.016726   19.102643
Pt   25.997833   13.625560   23.492700
Pt   26.337203   15.808090   25.311957
Pt   28.150050   15.399060   23.178809
Pt   30.006303   18.680879   16.648658
Pt   25.823621   16.859279   15.009498
Pt   26.155763   19.074112   16.795316
Pt   27.924159   16.839177   16.874588
Pt   31.992652   18.679297   18.569493
Pt   26.102479   17.223838   19.000757
Pt   26.424296   19.463548   20.851868
Pt   28.185812   17.205093   20.941089
Pt   28.247319   19.059830   18.673826
Pt   26.396476   17.613120   23.112641
Pt   26.724592   19.846888   24.916658
Pt   30.283030   17.197767   22.879871
Pt   28.534309   19.452051   22.797797
Pt   28.492569   17.610044   25.004052
Pt   26.666541   18.006610   27.113413
Pt   32.267119   19.046295   22.450392
Pt   27.923274   18.696722   14.777094
Pt   26.227596   20.915313   14.605232
Pt   28.326567   20.898215   16.467009
Pt   26.510195   21.305931   18.593269
Pt   26.837028   23.498393   20.442845
Pt   28.593134   21.308680   20.528393
Pt   26.563931   23.111708   16.398147
Pt   26.794076   21.694570   22.698588
Pt   27.125893   23.877759   24.487324
Pt   27.081971   22.071776   26.685782
Pt   28.949241   23.495264   22.357996
Pt   22.647852   16.570687   29.486294
Pt   26.896499   25.293598   18.211663
Pt   28.919618   25.204168   20.136613
Pt   30.672919   23.017722   20.219803
Pt   27.180031   25.676334   22.273242
Pt   29.888125   15.098899   21.019909
Pt   28.898270   21.668314   24.584319
Pt   29.996819   16.808197   18.769832
Pt   30.259655   19.060056   20.623946
Pt   31.936289   16.926710   20.707203
Pt   30.692571   21.294532   22.462738
Pt   30.401681   20.904808   18.356363
Pt   28.665261   23.110507   18.289130
Pt   32.321008   20.799390   20.312757
