309
Generated with con2xyz
Pt   17.453465   18.479812   18.675703
Pt   18.745758   14.817105   18.895119
Pt   19.018057   16.873306   16.978002
Pt   17.150083   16.419511   20.583269
Pt   15.717047   22.348662   15.809228
Pt   19.388373   19.016338   15.105593
Pt   16.848702   18.367648   15.954839
Pt   14.795733   19.924760   15.143627
Pt   15.225250   19.910998   17.791576
Pt   17.812302   20.757747   16.851572
Pt   17.251345   20.524294   14.194776
Pt   14.968791   17.902319   19.735959
Pt   13.562115   19.637142   21.335610
Pt   15.627949   18.113430   22.350602
Pt   16.014024   20.326897   20.456778
Pt   14.216991   19.917815   23.990714
Pt   18.282226   22.984147   14.979648
Pt   14.229749   23.963089   17.671222
Pt   13.359557   21.565247   16.807214
Pt   16.317497   22.483564   18.567394
Pt   16.744770   24.740283   16.745193
Pt   13.798710   21.762317   19.480156
Pt   14.474041   22.074958   22.187607
Pt   14.838660   24.232250   20.344894
Pt   15.317980   26.366125   18.543863
Pt   20.912224   13.403867   19.851491
Pt   23.148969   12.125570   20.861909
Pt   23.490958   14.066256   18.954252
Pt   21.605752   13.615757   22.568546
Pt   21.597090   17.590085   16.110566
Pt   23.849812   16.197593   17.108476
Pt   24.209692   18.331342   15.297670
Pt   21.237608   15.448146   17.944549
Pt   19.733944   17.169801   19.702640
Pt   21.971207   15.750339   20.697137
Pt   22.347492   17.892559   18.818589
Pt   19.354326   14.997872   21.566791
Pt   17.863232   16.697672   23.296369
Pt   20.102554   15.305732   24.294373
Pt   20.454559   17.443262   22.457687
Pt   18.620769   17.007286   26.002656
Pt   19.807069   21.231076   13.377554
Pt   22.379011   21.956987   12.575947
Pt   31.412995   22.598373   17.314285
Pt   21.980099   19.759290   14.281924
Pt   20.447236   21.492753   15.998789
Pt   22.702521   20.038978   16.991471
Pt   23.067713   22.234462   15.182975
Pt   20.072478   19.302184   17.821998
Pt   18.600629   21.038563   19.575314
Pt   20.854552   19.638601   20.592872
Pt   21.211682   21.798263   18.742483
Pt   18.206555   18.848411   21.441583
Pt   16.711393   20.614495   23.187728
Pt   18.956189   19.155379   24.177722
Pt   19.341232   21.353311   22.318888
Pt   16.367165   18.432444   25.028253
Pt   14.966233   20.211683   26.649266
Pt   17.144595   18.732790   27.707912
Pt   17.476355   20.917224   25.906928
Pt   16.592639   20.828718   31.756230
Pt   23.448603   24.430645   13.373616
Pt   20.851355   23.694319   14.162099
Pt   19.339970   25.427603   15.885146
Pt   21.553611   23.987064   16.876999
Pt   21.941647   26.151253   15.071712
Pt   18.934390   23.246190   17.705913
Pt   17.439801   24.955636   19.471701
Pt   19.710949   23.517362   20.472429
Pt   20.063305   25.700903   18.597771
Pt   17.060757   22.807080   21.330375
Pt   15.578623   24.524449   23.062760
Pt   17.809273   23.099935   24.062947
Pt   18.176281   25.252682   22.225935
Pt   15.217479   22.365807   24.892994
Pt   15.993567   22.673701   27.585226
Pt   16.339583   24.823603   25.770376
Pt   20.459459   27.853118   16.778597
Pt   17.841613   27.145681   17.628277
Pt   16.435538   28.772411   19.421714
Pt   18.574116   27.400495   20.366554
Pt   18.982235   29.556781   18.516499
Pt   15.952741   26.675630   21.228247
Pt   16.702690   26.958068   23.952591
Pt   17.089975   29.103204   22.125809
Pt   17.618963   31.103282   20.322927
Pt   26.106976   14.815824   18.131944
Pt   28.293400   13.595483   19.236779
Pt   28.697129   15.634654   17.404848
Pt   25.735428   12.801219   20.040646
Pt   24.250953   14.419731   21.725322
Pt   26.508927   13.024454   22.731709
Pt   26.878506   15.166909   20.901969
Pt   23.905816   12.361942   23.544649
Pt   22.368260   13.920562   25.289284
Pt   23.189460   14.318215   27.948386
Pt   25.019605   14.723500   24.456272
Pt   21.727004   16.002498   29.644904
Pt   26.832594   19.085402   14.508795
Pt   29.058296   17.759239   15.601763
Pt   27.967154   21.574140   15.464510
Pt   26.482447   16.943208   16.313332
Pt   24.982263   18.632884   18.002875
Pt   27.278736   17.260734   19.044343
Pt   27.641190   19.395298   17.233580
Pt   24.606756   16.512037   19.827135
Pt   23.106778   18.226715   21.597840
Pt   25.379084   16.891256   22.623605
Pt   25.773209   18.979990   20.773009
Pt   22.705648   16.061485   23.466829
Pt   21.223263   17.749025   25.191895
Pt   23.527235   16.370095   26.208225
Pt   23.888526   18.536952   24.362045
Pt   20.892919   15.608495   27.006859
Pt   19.419525   17.310297   28.701793
Pt   20.315005   17.729046   31.265115
Pt   22.045829   18.070243   27.918673
Pt   21.407168   20.139406   32.208780
Pt   24.588324   20.494483   13.488967
Pt   26.074552   25.115061   12.715893
Pt   24.953274   22.689604   11.882876
Pt   30.512112   22.323856   14.689522
Pt   25.327617   20.776946   16.203644
Pt   23.835173   22.539342   17.929496
Pt   26.136082   21.117624   18.956380
Pt   26.466182   23.284457   17.191257
Pt   23.487794   20.374667   19.753071
Pt   21.988717   22.105332   21.491432
Pt   24.265990   20.681946   22.506317
Pt   24.634844   22.850116   20.663259
Pt   21.610709   19.933558   23.337535
Pt   20.111618   21.658002   25.048075
Pt   22.401478   20.239742   26.074529
Pt   22.762148   22.406816   24.238796
Pt   19.736766   19.464322   26.894213
Pt   15.725160   20.506735   29.287055
Pt   20.570487   19.819698   29.591797
Pt   20.917993   21.970948   27.747304
Pt   17.999709   19.055474   30.372064
Pt   19.119545   21.551720   31.351857
Pt   27.184263   21.296800   12.825994
Pt   24.565958   26.879352   14.284250
Pt   25.704720   22.983962   14.446923
Pt   26.839132   25.440956   15.353309
Pt   24.174729   24.733011   16.089887
Pt   22.701269   26.447848   17.779952
Pt   24.994830   25.023549   18.844875
Pt   25.365668   27.192922   17.009542
Pt   22.347428   24.271258   19.640737
Pt   20.847803   25.969235   21.374289
Pt   23.132678   24.574993   22.394970
Pt   23.513954   26.725049   20.550721
Pt   20.475550   23.823650   23.221272
Pt   18.947151   25.554549   24.964105
Pt   21.263213   24.135238   25.961126
Pt   21.630060   26.277018   24.138432
Pt   18.588100   23.403725   26.780121
Pt   17.132770   25.142773   28.471979
Pt   19.439353   23.694063   29.479823
Pt   19.768313   25.870325   27.692906
Pt   16.846305   23.001069   30.253397
Pt   18.073365   25.406304   31.040858
Pt   27.153919   27.515262   13.665764
Pt   23.091392   28.591434   15.980693
Pt   21.604729   30.279488   17.691392
Pt   23.886825   28.891909   18.710188
Pt   25.715130   29.247757   15.277211
Pt   21.218878   28.129409   19.495643
Pt   19.766246   29.803830   21.284672
Pt   22.029383   28.371854   22.292220
Pt   22.397301   30.539985   20.460424
Pt   19.317932   27.679696   23.131969
Pt   17.854309   29.398397   24.842735
Pt   20.131290   28.007500   25.872447
Pt   20.534398   30.103595   24.013568
Pt   17.488773   27.275054   26.666511
Pt   18.361179   27.532045   29.310077
Pt   18.717032   29.646216   27.505287
Pt   24.243665   30.937646   16.969745
Pt   20.180535   31.879794   19.497738
Pt   20.909377   32.244059   22.181175
Pt   18.342474   31.448001   22.998358
Pt   19.120816   31.680521   25.673755
Pt   29.556590   15.874062   20.072755
Pt   29.070994   13.823184   21.916199
Pt   27.647743   15.466291   23.633593
Pt   24.647420   12.723848   26.218781
Pt   29.793973   14.163641   24.596491
Pt   27.241209   13.386916   25.417386
Pt   25.819523   14.987926   27.222499
Pt   28.432292   15.719521   26.401195
Pt   29.366252   19.906609   13.878197
Pt   29.922686   18.000221   18.247328
Pt   28.466719   19.709896   19.966115
Pt   30.707537   18.301146   20.967832
Pt   31.070807   20.440715   19.154980
Pt   28.094276   17.590008   21.791377
Pt   26.559218   19.294024   23.536005
Pt   28.838930   17.872369   24.556664
Pt   29.239499   20.026411   22.699721
Pt   26.191484   17.139523   25.418594
Pt   24.701382   18.817408   27.130871
Pt   26.959620   17.429862   28.132008
Pt   27.338431   19.573394   26.311044
Pt   24.339644   16.673813   28.931061
Pt   22.883388   18.383594   30.629732
Pt   25.494889   19.126211   29.830850
Pt   28.326933   23.728069   13.645130
Pt   29.105572   24.031937   16.363769
Pt   30.281004   20.147398   16.446045
Pt   29.402523   26.143029   14.591566
Pt   28.823356   21.856370   18.176360
Pt   27.297834   23.600858   19.879387
Pt   29.619494   22.173136   20.892233
Pt   29.945904   24.354547   19.064416
Pt   26.930231   21.433049   21.683803
Pt   25.404717   23.148841   23.400497
Pt   27.690275   21.752020   24.418118
Pt   28.075571   23.897265   22.602082
Pt   25.046603   20.985962   25.260618
Pt   23.554194   22.715758   26.981389
Pt   25.848413   21.272193   28.021488
Pt   26.172735   23.451409   26.135927
Pt   23.230105   20.530469   28.827345
Pt   21.721197   22.283798   30.475540
Pt   24.009472   20.844165   31.529680
Pt   24.350431   23.027438   29.724532
Pt   18.268277   21.225550   28.634685
Pt   22.508147   22.587289   33.021123
Pt   31.585056   24.739761   15.603413
Pt   28.012900   27.937255   16.232789
Pt   30.268202   26.531001   17.224595
Pt   27.668155   25.803603   18.061061
Pt   26.187700   27.513804   19.738690
Pt   28.465003   26.099525   20.771169
Pt   28.800767   28.249292   18.947815
Pt   25.795119   25.324754   21.572321
Pt   24.299309   27.030634   23.312073
Pt   26.546131   25.603050   24.306564
Pt   26.961281   27.812500   22.464923
Pt   23.905517   24.880862   25.149888
Pt   22.418049   26.625218   26.906757
Pt   24.689457   25.217548   27.909330
Pt   25.050920   27.362179   26.089130
Pt   22.074427   24.480948   28.713127
Pt   20.600906   26.200071   30.403227
Pt   22.859626   24.780178   31.414939
Pt   23.212685   26.935244   29.605721
Pt   20.276569   24.013705   32.096365
Pt   26.533300   29.644180   17.920065
Pt   25.057757   31.333652   19.631602
Pt   27.324308   29.947454   20.638517
Pt   24.708283   29.198840   21.453623
Pt   24.274499   33.135666   24.052315
Pt   25.439361   29.508527   24.217815
Pt   23.163373   30.844147   23.190056
Pt   22.800899   28.749392   25.083812
Pt   21.307983   30.457000   26.777668
Pt   23.563623   29.063042   27.798817
Pt   23.922429   31.197774   25.957279
Pt   20.935911   28.333265   28.595168
Pt   22.781999   32.535600   18.696985
Pt   23.519214   32.897832   21.370212
Pt   21.682182   32.470066   24.869507
Pt   30.973644   16.494057   25.508721
Pt   31.827065   20.714779   21.867636
Pt   30.320693   16.162887   22.796583
Pt   29.952271   20.340339   25.436885
Pt   32.020794   18.898022   26.372853
Pt   31.461034   18.584606   23.699513
Pt   29.568246   18.151084   27.305605
Pt   28.108542   19.884775   29.018942
Pt   30.627041   20.604525   28.108306
Pt   32.423088   25.059496   18.212008
Pt   32.188208   22.896333   19.989116
Pt   30.735406   24.653151   21.803063
Pt   32.957631   23.118323   22.649762
Pt   33.184706   25.355206   20.867559
Pt   30.397513   22.510288   23.647108
Pt   28.856123   24.215999   25.366801
Pt   32.530234   21.020033   24.609343
Pt   28.673883   30.422737   26.032389
Pt   28.481768   22.056931   27.168255
Pt   26.956414   23.762092   28.862704
Pt   29.146194   22.354300   29.810310
Pt   33.503594   23.460704   25.249427
Pt   26.618424   21.584493   30.725391
Pt   25.085471   23.317941   32.317047
Pt   27.619567   24.032404   31.449376
Pt   31.049197   26.832508   19.932768
Pt   31.766683   27.100166   22.644218
Pt   30.208451   28.777060   24.380346
Pt   29.206589   26.376437   23.512426
Pt   27.666926   28.069692   25.213469
Pt   29.899390   26.708136   26.267214
Pt   29.574767   28.544144   21.668406
Pt   27.330623   25.925170   27.058512
Pt   25.831528   27.658646   28.796752
Pt   28.023589   26.180309   29.703397
Pt   26.507507   31.850739   25.066315
Pt   25.468136   25.514617   30.611849
Pt   28.070422   30.254102   23.361747
Pt   25.817484   31.640707   22.351346
Pt   28.360699   28.351711   27.890871
Pt   26.169486   29.810543   26.969513
Pt   31.118916   22.777137   26.386963
Pt   31.427186   25.024366   24.594215
Pt   33.816184   25.518873   23.480572
Pt   29.566976   24.515083   28.062053
