309
Generated with con2xyz
Pt   10.692960   17.147745   23.460324
Pt   12.098211   14.892548   22.681184
Pt   11.955531   17.167969   21.032230
Pt   12.853304   16.369697   24.952872
Pt   10.608930   21.758521   20.280732
Pt   11.911227   19.508592   19.419230
Pt   11.968652   21.860332   17.871744
Pt   10.585847   19.457502   21.878373
Pt   12.231324   22.530280   26.271347
Pt   12.852467   18.741523   23.289772
Pt   12.813388   21.087188   21.664898
Pt   11.452402   18.681188   25.673172
Pt   12.324302   20.211316   27.840192
Pt   13.688131   17.924831   27.181400
Pt   13.691052   20.299582   25.526837
Pt   14.567295   19.522193   29.309059
Pt   12.734049   23.475550   20.034236
Pt   11.374530   23.304880   22.476970
Pt   11.340536   21.005039   24.093671
Pt   12.257036   24.816962   24.656429
Pt   13.569149   25.026972   22.261419
Pt   13.652098   22.644761   23.901419
Pt   14.484875   21.894636   27.795246
Pt   14.454744   24.230973   26.178937
Pt   14.470048   26.476951   24.493644
Pt   13.598795   12.657643   21.883130
Pt   15.150784   10.506239   21.089985
Pt   14.974810   12.675028   19.427852
Pt   15.868634   11.877152   23.349195
Pt   13.411646   17.236342   18.598774
Pt   14.922989   14.995309   17.795296
Pt   14.883345   17.317209   16.175387
Pt   13.454485   14.911052   20.236788
Pt   14.306502   16.451040   22.492328
Pt   15.815725   14.203942   21.690259
Pt   15.758549   16.532848   20.018115
Pt   14.348713   14.116608   24.147001
Pt   15.195297   15.656551   26.392655
Pt   16.701089   13.413170   25.592709
Pt   16.658745   15.730080   23.968844
Pt   17.541348   14.970172   27.816444
Pt   13.457944   21.907019   15.543455
Pt   16.397736   17.384359   13.814364
Pt   18.002417   25.279442   15.046740
Pt   13.364578   19.583134   17.000339
Pt   14.225986   21.182920   19.208843
Pt   15.721057   18.873991   18.389579
Pt   15.731142   21.255076   16.804385
Pt   14.264236   18.792002   20.814086
Pt   15.193795   20.375666   23.089425
Pt   16.650161   18.096418   22.294323
Pt   16.609561   20.464230   20.644074
Pt   15.167593   17.988192   24.772491
Pt   16.003833   19.593697   27.010440
Pt   17.507407   17.289994   26.203379
Pt   17.506038   19.672132   24.560443
Pt   16.038119   17.225417   28.615322
Pt   16.895991   18.854572   30.640487
Pt   20.720913   18.220782   29.916050
Pt   18.378943   18.890636   28.404220
Pt   25.359542   19.144545   30.815016
Pt   19.575346   22.940158   14.248735
Pt   14.198248   23.554917   17.606723
Pt   15.039206   25.121825   19.831295
Pt   16.545093   22.861051   19.021087
Pt   16.504759   25.186057   17.416585
Pt   15.088924   22.785863   21.442211
Pt   15.926028   24.322733   23.726235
Pt   17.463960   22.041255   22.910706
Pt   17.388002   24.424877   21.256214
Pt   15.987127   21.978388   25.396715
Pt   16.796565   23.542454   27.612780
Pt   18.325691   21.272849   26.829704
Pt   18.284903   23.612918   25.203290
Pt   16.816280   21.200862   29.221879
Pt   19.158010   20.495716   30.530845
Pt   19.133684   22.849796   29.037673
Pt   17.349741   26.742782   19.636552
Pt   15.865573   26.655310   22.077353
Pt   16.762419   28.082662   24.304384
Pt   18.233989   25.942541   23.529242
Pt   18.171882   28.263893   21.868169
Pt   16.758519   25.860944   25.983565
Pt   19.121762   25.151460   27.424863
Pt   19.080527   27.456846   25.792983
Pt   21.423240   28.969354   25.489174
Pt   16.455352   12.739620   17.003572
Pt   18.865896   12.068416   18.444892
Pt   20.365282   12.085544   15.979074
Pt   16.587983   10.510808   18.688792
Pt   17.382575   11.995370   20.881991
Pt   21.243733   9.102893   21.484220
Pt   18.900594   9.735949   20.072613
Pt   17.451213   9.737535   22.479288
Pt   18.219412   11.156145   24.765260
Pt   20.606488   10.523104   26.099859
Pt   19.743153   11.275707   22.306717
Pt   21.432593   12.051759   28.293532
Pt   17.957716   15.124342   13.078284
Pt   18.002939   12.838876   14.671616
Pt   18.812773   21.456594   12.049523
Pt   16.414536   15.053017   15.378664
Pt   17.246131   16.615413   17.572112
Pt   18.808875   14.361268   16.766840
Pt   18.770843   16.698813   15.135193
Pt   17.283608   14.302976   19.209497
Pt   18.162501   15.844831   21.490729
Pt   19.717891   13.638660   20.687211
Pt   19.663518   15.923785   19.022104
Pt   18.183183   13.495649   23.172915
Pt   19.027960   15.025422   25.408761
Pt   20.580748   12.759806   24.569132
Pt   20.555298   15.128709   22.945478
Pt   19.056866   12.684848   26.986300
Pt   19.873452   14.245557   29.190902
Pt   24.515112   15.164885   30.258966
Pt   21.415976   14.300908   26.785457
Pt   22.254642   15.921459   28.943628
Pt   18.677208   19.100709   13.563648
Pt   17.131111   21.337731   14.321750
Pt   20.175438   19.038298   11.336891
Pt   21.044639   23.088897   11.958605
Pt   17.220919   18.968878   15.975673
Pt   18.104364   20.536287   18.226723
Pt   19.627473   18.253828   17.399086
Pt   19.581632   20.597628   15.782286
Pt   18.123316   18.179435   19.840614
Pt   18.976625   19.750251   22.100750
Pt   20.510632   17.468713   21.287597
Pt   20.474321   19.823453   19.653274
Pt   19.016704   17.387786   23.744711
Pt   19.875096   18.965564   25.968202
Pt   21.398469   16.682929   25.184921
Pt   21.360008   19.039352   23.536673
Pt   19.872873   16.610020   27.631057
Pt   20.820536   15.829855   31.228996
Pt   26.117225   15.242123   27.957945
Pt   22.241107   18.282292   27.436911
Pt   18.428979   16.573534   29.995990
Pt   26.950151   19.184378   28.582928
Pt   22.616532   18.395117   12.576784
Pt   19.571540   25.244953   12.795821
Pt   18.025240   22.912107   16.592368
Pt   20.380597   26.818622   14.906258
Pt   15.709122   23.584127   15.214977
Pt   18.866252   24.489278   18.816147
Pt   20.433086   22.182547   18.009172
Pt   20.405295   24.565293   16.413571
Pt   18.933239   22.114073   20.457855
Pt   19.775202   23.665886   22.708720
Pt   21.318786   21.388319   21.898402
Pt   21.272876   23.723232   20.246632
Pt   19.827313   21.325919   24.360198
Pt   20.664017   22.889491   26.646279
Pt   22.214385   20.624489   25.798779
Pt   22.162863   22.942797   24.145221
Pt   20.708994   20.538841   28.227860
Pt   23.073332   22.214010   28.125847
Pt   25.439705   21.411159   29.362093
Pt   23.139361   17.428610   31.094119
Pt   21.407859   22.106377   30.318784
Pt   21.192936   28.270533   17.096001
Pt   18.847343   26.835060   17.247015
Pt   19.692913   28.328775   19.471766
Pt   21.241234   26.089852   18.647293
Pt   19.070292   29.594412   24.102929
Pt   19.717390   26.035020   21.048172
Pt   20.592217   27.495671   23.307703
Pt   22.106847   25.250219   22.473035
Pt   22.077943   27.703394   20.827190
Pt   20.601480   25.204499   25.000288
Pt   21.442708   26.761303   27.211276
Pt   23.004344   24.479174   26.406679
Pt   22.951337   26.784090   24.746154
Pt   21.488433   24.440083   28.805517
Pt   26.695383   28.334750   22.121843
Pt   20.491330   29.726112   21.771742
Pt   22.906044   29.113210   23.106229
Pt   23.744480   28.234658   26.865756
Pt   23.791291   26.017811   28.453165
Pt   18.066688   10.624753   16.321475
Pt   20.380852   9.874309   17.692712
Pt   22.710081   9.241973   19.105058
Pt   21.226742   11.351607   19.872140
Pt   22.720047   11.382153   17.395062
Pt   19.788192   9.092641   23.875998
Pt   22.132900   10.501400   23.737859
Pt   23.613955   10.579788   21.315382
Pt   18.005357   17.380614   11.609034
Pt   20.323079   14.392970   14.360911
Pt   21.166163   15.972342   16.539143
Pt   22.691058   13.708306   15.758400
Pt   22.666457   16.038996   14.146909
Pt   21.216385   13.652130   18.177333
Pt   22.056647   15.204000   20.474796
Pt   23.572310   12.910596   19.655521
Pt   23.535010   15.248888   17.980981
Pt   22.118157   12.837702   22.138147
Pt   22.951113   14.364872   24.371998
Pt   24.467102   12.111847   23.550247
Pt   24.436493   14.439249   21.930530
Pt   22.962749   12.027032   25.957788
Pt   22.249925   13.625379   30.406288
Pt   25.309152   13.655791   25.766509
Pt   17.326165   23.668957   12.929124
Pt   21.145116   20.684173   13.292318
Pt   20.331465   16.708679   12.761833
Pt   24.912261   20.030235   12.535546
Pt   21.113441   18.327310   14.920363
Pt   21.961418   19.896411   17.210369
Pt   23.489482   17.593442   16.353537
Pt   23.449836   19.972735   14.776763
Pt   22.008455   17.539263   18.827989
Pt   22.854339   19.108011   21.087661
Pt   24.377015   16.827597   20.277631
Pt   24.336929   19.185395   18.632188
Pt   22.893843   16.748753   22.734577
Pt   23.723356   18.329859   24.976382
Pt   25.277121   15.996880   24.165080
Pt   25.221753   18.394353   22.540501
Pt   23.795036   15.934058   26.579379
Pt   29.844004   16.987685   25.332024
Pt   28.359517   16.925874   27.650807
Pt   31.272383   17.067779   22.929394
Pt   24.673404   17.506610   28.816614
Pt   14.885703   19.661681   14.689110
Pt   21.957021   24.639313   14.022329
Pt   23.432554   22.335314   13.209235
Pt   21.968220   22.271066   15.574456
Pt   22.804960   23.841847   17.792372
Pt   24.328309   21.575009   16.988962
Pt   24.298755   23.912446   15.390153
Pt   22.819852   21.467197   19.440843
Pt   23.666855   23.016494   21.691730
Pt   25.186361   20.751801   20.891662
Pt   25.168557   23.136609   19.224804
Pt   23.705523   20.678656   23.345945
Pt   24.567067   22.233772   25.635088
Pt   26.092634   19.982726   24.814494
Pt   26.062299   22.318232   23.178886
Pt   24.574012   19.899599   27.263335
Pt   25.375706   23.785086   27.797248
Pt   26.098020   17.608919   26.385023
Pt   26.927070   21.535209   27.029821
Pt   22.773430   26.192467   16.226210
Pt   23.586919   27.689239   18.457877
Pt   25.125261   25.465452   17.611930
Pt   23.632201   25.390183   20.028277
Pt   24.426985   26.863784   22.310578
Pt   26.006165   24.659924   21.505312
Pt   25.968447   26.982587   19.838447
Pt   24.537626   24.549484   23.977447
Pt   25.364053   26.106914   26.194585
Pt   26.888214   23.850387   25.414985
Pt   26.844912   26.170297   23.777185
Pt   23.036389   19.863351   29.710763
Pt   24.448548   29.075240   20.744434
Pt   28.237762   26.186915   21.320931
Pt   25.225775   28.340595   24.502660
Pt   25.020631   10.752670   18.884389
Pt   24.999260   15.323045   15.562929
Pt   25.033376   12.982217   17.197452
Pt   25.875085   14.525597   19.459824
Pt   27.313654   12.360645   18.688906
Pt   27.321287   14.601077   17.003744
Pt   25.925568   12.180883   21.108739
Pt   26.773968   13.726820   23.352096
Pt   28.213504   13.798831   20.919499
Pt   29.528820   18.635922   15.291941
Pt   24.965834   17.674398   13.941418
Pt   25.807008   19.268563   16.170353
Pt   27.290563   16.972075   15.363668
Pt   31.749135   17.938588   16.778808
Pt   25.840774   16.879696   17.787362
Pt   26.680579   18.474011   20.088869
Pt   28.155765   16.154178   19.272836
Pt   28.120965   18.564902   17.606940
Pt   26.744121   16.071758   21.740567
Pt   27.588418   17.673359   23.991093
Pt   30.487250   15.437642   20.756558
Pt   29.026590   17.752246   21.574821
Pt   29.070722   15.371036   23.179089
Pt   27.615467   15.288544   25.585069
Pt   32.601439   17.170802   20.511515
Pt   27.228589   19.339674   13.864011
Pt   25.789913   21.648312   14.570626
Pt   28.113191   20.936792   15.989541
Pt   26.670703   20.868330   18.418785
Pt   27.509576   22.412424   20.707861
Pt   28.988332   20.160702   19.910600
Pt   26.636889   23.209960   16.806648
Pt   27.565518   20.057323   22.377385
Pt   28.403092   21.608635   24.603579
Pt   28.446583   19.265033   26.211393
Pt   29.855783   21.700796   22.171957
Pt   23.815530   13.571422   28.147502
Pt   27.483431   24.746132   19.049976
Pt   29.729008   23.958046   20.522959
Pt   31.200558   21.715682   19.725196
Pt   28.363635   23.940874   22.970614
Pt   29.588590   13.984800   18.502420
Pt   29.897697   19.336096   23.805232
Pt   29.586796   16.247993   16.804886
Pt   30.374407   17.857404   19.118196
Pt   31.778444   15.663974   18.346755
Pt   31.323830   19.436486   21.389298
Pt   30.420355   20.247928   17.437475
Pt   28.967309   22.504925   18.251542
Pt   32.569375   19.446018   18.944413
