309
Generated with con2xyz
Pt   13.567067   17.277018   20.895290
Pt   15.552116   15.394249   21.240194
Pt   15.668427   17.257628   19.127159
Pt   15.034951   17.373371   23.189071
Pt   11.878889   21.097656   18.392907
Pt   15.855240   19.234393   17.050683
Pt   13.903097   21.163211   16.703419
Pt   13.641603   19.155098   18.793867
Pt   13.111569   21.257217   20.743635
Pt   15.237674   19.373530   21.073805
Pt   15.371947   21.333801   18.986929
Pt   13.069566   19.303488   22.784840
Pt   12.702038   21.372120   24.650563
Pt   14.594681   19.445969   25.106394
Pt   14.817614   21.443163   23.006006
Pt   14.249876   21.549869   26.943323
Pt   15.604187   23.335158   16.904278
Pt   13.388935   23.264955   18.646371
Pt   13.076331   25.264015   20.607849
Pt   14.990554   23.405850   20.928477
Pt   15.167812   25.414964   18.834440
Pt   12.822376   23.331734   22.639620
Pt   14.343166   23.543090   24.958413
Pt   14.535776   25.511368   22.895846
Pt   14.815291   27.395206   20.808846
Pt   17.633568   13.550114   21.612764
Pt   19.750451   11.805647   21.989496
Pt   19.847399   13.551777   19.879767
Pt   19.219255   13.661870   23.931877
Pt   17.926016   17.344924   17.426013
Pt   20.018407   15.488415   17.802704
Pt   20.201884   17.432268   15.749832
Pt   17.742661   15.393340   19.507527
Pt   17.295339   17.457180   21.451328
Pt   19.394955   15.595285   21.828748
Pt   19.572382   17.530350   19.716979
Pt   17.115507   15.504081   23.548768
Pt   16.678079   17.559145   25.485001
Pt   18.770286   15.701732   25.857316
Pt   18.944132   17.636406   23.790957
Pt   18.338998   17.746331   27.758368
Pt   16.121594   21.240670   15.060810
Pt   18.369454   21.322051   13.489239
Pt   24.809663   17.683935   12.632923
Pt   18.122103   19.315463   15.365647
Pt   17.662726   21.413672   17.283439
Pt   19.760789   19.487445   17.654263
Pt   19.970116   21.495164   15.625973
Pt   17.482763   19.414068   19.335649
Pt   17.102818   21.522522   21.297373
Pt   19.164436   19.620710   21.682094
Pt   19.354289   21.599277   19.596889
Pt   16.861603   19.512780   23.417126
Pt   16.423323   21.625396   25.330464
Pt   18.509942   19.701520   25.711375
Pt   18.726367   21.704567   23.619564
Pt   16.240779   19.639360   27.388890
Pt   15.905984   21.732946   29.209832
Pt   17.919555   19.816751   29.653238
Pt   18.088343   21.809078   27.609636
Pt   17.616358   21.915933   31.382804
Pt   20.165829   23.478420   13.594760
Pt   17.871356   23.412183   15.220085
Pt   17.428620   25.484893   17.135484
Pt   19.509735   23.602092   17.507511
Pt   19.705530   25.556923   15.460199
Pt   17.232213   23.517335   19.188254
Pt   16.797118   25.581795   21.159312
Pt   18.915198   23.683684   21.536299
Pt   19.074570   25.664142   19.425708
Pt   16.609054   23.632947   23.268378
Pt   16.179003   25.693001   25.191637
Pt   18.257702   23.811151   25.562737
Pt   18.444808   25.771962   23.497670
Pt   15.990898   23.716174   27.241713
Pt   17.668065   23.907389   29.506018
Pt   17.839632   25.873124   27.464863
Pt   19.277361   27.606017   17.370206
Pt   16.998018   27.541855   19.072304
Pt   16.653853   29.503133   21.040163
Pt   18.651534   27.709357   21.393840
Pt   18.860640   29.650375   19.303316
Pt   16.370369   27.642723   23.112484
Pt   18.026465   27.815260   25.420972
Pt   18.230819   29.752546   23.353927
Pt   18.539531   31.516858   21.282642
Pt   22.134566   13.635294   18.196007
Pt   24.252533   11.966275   18.670220
Pt   24.448823   13.797671   16.603144
Pt   21.999880   11.821954   20.324697
Pt   21.545564   13.792958   22.212314
Pt   23.653567   11.932008   22.591986
Pt   23.841551   13.874598   20.522621
Pt   21.391124   11.931687   24.255561
Pt   20.892417   13.856095   26.226279
Pt   23.040662   12.185324   26.506049
Pt   23.225036   13.982503   24.512553
Pt   22.614874   14.126173   28.436109
Pt   22.493552   17.502214   14.106723
Pt   24.633942   15.723147   14.574674
Pt   24.383383   19.706723   14.381549
Pt   22.326046   15.559597   16.142469
Pt   21.877659   17.614015   18.024030
Pt   24.035079   15.761954   18.423103
Pt   24.216882   17.701366   16.375839
Pt   21.688119   15.689620   20.089076
Pt   21.268358   17.753757   22.061939
Pt   23.411149   15.952504   22.442234
Pt   23.598984   17.838344   20.354225
Pt   21.056791   15.796177   24.173970
Pt   20.628552   17.824700   26.091294
Pt   22.790338   15.979166   26.468358
Pt   22.974676   17.945927   24.385994
Pt   20.467531   15.889765   28.140015
Pt   20.030664   17.944148   30.028152
Pt   22.186322   16.159514   30.327867
Pt   22.360144   18.022619   28.370322
Pt   21.769227   18.227127   32.123319
Pt   20.415992   19.411591   13.739832
Pt   22.212693   21.569886   13.883148
Pt   22.774970   19.467263   12.216733
Pt   26.633189   19.806949   12.784291
Pt   22.054915   19.580680   15.981785
Pt   21.643505   21.679035   17.933326
Pt   23.779837   19.782605   18.300612
Pt   23.927309   21.760948   16.280580
Pt   21.461901   19.699298   19.981021
Pt   21.031682   21.784522   21.917191
Pt   23.156688   19.892955   22.298151
Pt   23.344737   21.863931   20.221770
Pt   20.835953   19.808832   23.999205
Pt   20.399379   21.888889   25.907773
Pt   22.544617   19.992961   26.290683
Pt   22.721195   21.969499   24.230366
Pt   20.196762   19.882712   27.975303
Pt   19.818289   21.995739   29.844228
Pt   21.933894   20.118887   30.221421
Pt   22.121132   22.075810   28.143952
Pt   19.676247   20.065447   31.817033
Pt   21.502305   22.180468   32.123002
Pt   22.519350   23.599217   12.069257
Pt   21.992896   25.648589   13.815342
Pt   24.135923   23.714297   14.239662
Pt   24.317853   25.643869   12.346231
Pt   21.803081   23.669996   15.835101
Pt   21.379399   25.742457   17.733694
Pt   23.527490   23.844073   18.153005
Pt   23.717226   25.822969   16.084965
Pt   21.212845   23.763329   19.836128
Pt   20.773208   25.814982   21.772502
Pt   22.908858   23.941203   22.153158
Pt   23.101132   25.894943   20.065219
Pt   20.587288   23.864790   23.852930
Pt   20.128005   25.955748   25.797894
Pt   22.291150   24.055784   26.145595
Pt   22.476776   25.999999   24.096476
Pt   19.942585   24.000008   27.827160
Pt   19.531979   26.046558   29.735297
Pt   21.687070   24.139500   30.076251
Pt   21.860343   26.134361   28.077799
Pt   19.433029   24.030431   31.673802
Pt   21.280919   26.128759   31.838443
Pt   23.895549   27.705235   14.144722
Pt   21.582445   27.699548   15.709540
Pt   21.150995   29.729779   17.623639
Pt   23.291590   27.869104   17.991333
Pt   23.471443   29.736039   16.036648
Pt   20.946884   27.773265   19.656506
Pt   20.563877   29.784751   21.638483
Pt   22.674630   27.890701   22.013541
Pt   22.864366   29.863868   19.953857
Pt   20.313616   27.880689   23.739572
Pt   19.907254   29.929408   25.646884
Pt   22.047276   28.074946   26.032579
Pt   22.247622   29.963640   23.936751
Pt   19.723673   27.999710   27.702280
Pt   21.450469   28.098772   29.896543
Pt   21.638553   30.029947   27.861735
Pt   23.051155   31.671491   17.973318
Pt   20.786330   31.657986   19.618639
Pt   22.438450   31.906618   21.878578
Pt   20.178213   31.752927   23.541695
Pt   21.838833   31.863235   25.794472
Pt   26.178094   13.909569   18.816534
Pt   25.906302   12.080743   20.921980
Pt   25.518946   14.056793   22.821642
Pt   27.538317   12.322201   23.182949
Pt   27.846470   14.084754   21.104668
Pt   25.299221   12.190149   24.855492
Pt   24.935574   14.131584   26.844574
Pt   27.219302   14.196064   25.158880
Pt   26.548931   17.791668   14.732146
Pt   26.360355   15.836753   16.761375
Pt   25.948218   17.885896   18.656260
Pt   28.055226   16.033639   19.038664
Pt   28.238797   17.971681   16.994304
Pt   25.769445   15.966221   20.717730
Pt   25.311888   18.036519   22.680156
Pt   27.425322   16.134512   23.059590
Pt   27.640603   18.083834   20.955414
Pt   25.138392   16.076805   24.797125
Pt   24.701966   18.101487   26.712860
Pt   26.808663   16.252644   27.085551
Pt   27.011647   18.192997   25.023978
Pt   24.500084   16.164077   28.756765
Pt   24.077005   18.217743   30.648093
Pt   26.380440   18.291648   28.987556
Pt   24.552824   21.657770   12.339290
Pt   26.255438   21.844448   14.612529
Pt   28.403370   19.935241   14.948647
Pt   28.442912   21.921845   13.056830
Pt   26.128168   19.843720   16.627969
Pt   25.664191   21.948028   18.534722
Pt   27.811931   20.034130   18.891820
Pt   27.988693   22.033404   16.846761
Pt   25.483618   19.972962   20.597996
Pt   25.026451   22.044659   22.530721
Pt   27.182631   20.177689   22.911472
Pt   27.335037   22.131512   20.840100
Pt   24.864356   20.078842   24.612339
Pt   24.438783   22.159971   26.524479
Pt   26.568690   20.246334   26.940046
Pt   26.722885   22.236184   24.828372
Pt   24.278259   20.159215   28.599772
Pt   23.802139   22.262761   30.455196
Pt   25.937025   20.356388   30.881239
Pt   26.133448   22.349097   28.840327
Pt   23.596693   20.327912   32.420129
Pt   25.423557   22.437475   32.590958
Pt   26.384069   23.773998   12.636460
Pt   26.047243   25.900788   14.438907
Pt   28.144096   24.022234   14.792530
Pt   25.876578   23.953835   16.482703
Pt   25.445466   26.013885   18.365006
Pt   27.563710   24.136299   18.750408
Pt   27.731897   26.095661   16.703379
Pt   25.226828   24.024596   20.445538
Pt   24.807537   26.078159   22.389944
Pt   26.893688   24.194267   22.761056
Pt   27.134647   26.186308   20.663109
Pt   24.605898   24.130691   24.471013
Pt   24.200432   26.222639   26.420440
Pt   26.322557   24.347195   26.788916
Pt   26.506506   26.291296   24.732976
Pt   24.027119   24.270055   28.450089
Pt   23.575800   26.314400   30.356617
Pt   25.676897   24.442486   30.741147
Pt   25.875746   26.406947   28.692791
Pt   23.347776   24.291735   32.280496
Pt   25.612373   27.959554   16.325200
Pt   25.195201   29.990025   18.244687
Pt   27.309373   28.133582   18.606028
Pt   25.028472   28.039944   20.287721
Pt   24.550152   30.041746   22.251628
Pt   26.699036   28.227550   22.629227
Pt   26.873288   30.169040   20.535419
Pt   24.398453   28.143243   24.363026
Pt   23.953801   30.191114   26.266009
Pt   26.066168   28.338214   26.650630
Pt   26.247717   30.270493   24.582119
Pt   23.754220   28.265088   28.320901
Pt   24.705820   31.910406   20.219845
Pt   26.351039   32.024468   22.481921
Pt   24.098625   32.007235   24.143851
Pt   29.420308   14.336008   23.418294
Pt   29.905976   18.172928   19.262936
Pt   29.702036   16.192202   21.335900
Pt   29.272285   18.253441   23.287110
Pt   31.250432   16.438502   23.642907
Pt   31.530059   18.317149   21.538449
Pt   29.075360   16.303069   25.384907
Pt   28.660512   18.387901   27.316158
Pt   30.898295   18.427767   25.630019
Pt   30.157018   22.105874   15.222616
Pt   30.088786   20.127890   17.220624
Pt   29.640234   22.219709   19.148243
Pt   31.707269   20.353886   19.525302
Pt   31.737984   22.303591   17.482985
Pt   29.486503   20.249246   21.180416
Pt   29.062144   22.366196   23.143225
Pt   31.041949   20.433015   23.501978
Pt   31.391143   22.460997   21.398875
Pt   28.857152   20.357122   25.253070
Pt   28.404494   22.428928   27.135122
Pt   30.475127   20.565735   27.493166
Pt   30.756319   22.568405   25.502989
Pt   28.233320   20.443642   29.214937
Pt   27.713141   22.523018   31.035320
Pt   29.903298   22.613770   29.349983
Pt   29.823725   24.216481   17.052894
Pt   29.412925   26.272382   18.987019
Pt   31.389676   24.376690   19.335909
Pt   29.239357   24.287136   21.070139
Pt   28.779327   26.320090   22.998473
Pt   30.944003   24.475814   23.379302
Pt   30.969193   26.399169   21.302634
Pt   28.620226   24.390485   25.075642
Pt   28.173258   26.479460   27.013296
Pt   30.147334   24.583498   27.372876
Pt   30.356384   26.499802   25.269698
Pt   27.963839   24.531444   29.084491
Pt   28.979907   28.313090   20.906476
Pt   28.463785   30.271877   22.851036
Pt   30.470379   28.390576   23.207392
Pt   28.355288   28.416004   24.953258
Pt   32.987455   18.567036   23.852365
Pt   33.210866   20.456836   21.860107
Pt   32.846762   22.450473   23.726396
Pt   32.615743   20.560144   25.716712
