309
Generated with con2xyz
Pt   12.018589   21.178541   21.247151
Pt   16.275057   17.419117   21.202581
Pt   18.308830   15.379836   17.152105
Pt   14.398028   17.334409   23.336196
Pt   10.285549   20.822060   19.245632
Pt   15.720157   21.270139   16.897384
Pt   14.049411   23.540221   25.061210
Pt   17.660341   25.786875   22.792985
Pt   17.738989   21.342793   14.909709
Pt   13.732401   25.459166   22.941059
Pt   15.941028   21.477225   21.051705
Pt   24.085115   24.488836   26.650265
Pt   15.516897   27.619694   22.782565
Pt   15.951198   19.149368   15.043372
Pt   18.702546   13.694089   23.356884
Pt   16.021102   19.332865   19.052154
Pt   14.593505   15.298852   21.365687
Pt   14.354085   21.627177   27.076550
Pt   12.488177   17.105429   21.344063
Pt   14.051308   19.067254   17.108745
Pt   18.324875   17.681493   23.174325
Pt   16.332216   19.727761   27.170509
Pt   18.068401   17.280267   15.068710
Pt   17.505639   23.287935   12.803602
Pt   16.420914   17.622877   25.264936
Pt   14.308671   19.494556   25.229127
Pt   16.537719   15.504490   23.337776
Pt   15.460533   25.310939   16.755789
Pt   18.038340   21.736752   22.948868
Pt   14.122811   19.284902   21.190822
Pt   19.099543   29.573981   16.509409
Pt   14.288442   17.109318   19.220681
Pt   12.002307   20.975215   17.208228
Pt   17.935096   19.395621   16.977214
Pt   19.708463   21.412074   12.868744
Pt   17.818440   25.990715   26.807891
Pt   19.896837   19.444564   14.923630
Pt   21.230152   27.455736   12.551294
Pt   19.964089   21.800484   20.843413
Pt   21.522994   27.982241   20.467878
Pt   18.440110   15.585308   21.217720
Pt   21.192126   31.903870   20.290228
Pt   13.981555   21.416679   23.214765
Pt   19.748742   26.056846   24.731959
Pt   19.426868   30.013667   24.540590
Pt   11.898948   25.222470   20.925305
Pt   12.335619   19.167456   23.252000
Pt   23.139260   31.822619   18.222782
Pt   23.179504   32.080746   22.303470
Pt   15.365479   27.421873   18.695510
Pt   13.564173   27.328795   20.824244
Pt   15.677418   23.400337   18.881710
Pt   29.482756   28.560555   20.210665
Pt   11.819279   23.077229   19.081575
Pt   16.722652   13.494581   21.382225
Pt   22.596802   13.884615   19.141733
Pt   20.494039   13.566276   17.180752
Pt   22.733371   14.083073   23.165247
Pt   20.260888   15.449966   15.085694
Pt   22.460968   13.725535   15.178115
Pt   22.254985   17.841857   18.935550
Pt   18.179194   17.474101   19.070753
Pt   18.582422   15.790752   25.278757
Pt   22.637416   16.123114   25.121300
Pt   20.363496   15.661451   19.082240
Pt   18.568140   13.484713   19.264861
Pt   20.671739   16.048567   27.196546
Pt   22.537746   18.211689   27.021953
Pt   20.199939   19.874477   22.971329
Pt   19.897369   26.239831   28.721283
Pt   15.849253   21.097518   13.025218
Pt   25.931292   19.859970   12.679826
Pt   25.592484   21.802671   10.781587
Pt   19.336967   25.453669   12.646450
Pt   13.667155   23.156518   16.968756
Pt   21.649012   21.479247   10.799681
Pt   23.894817   21.931199   16.677955
Pt   17.597611   23.473772   16.797762
Pt   18.106378   19.617627   21.023820
Pt   22.488413   16.002346   21.058549
Pt   20.047894   19.674874   18.927528
Pt   16.149474   17.212030   17.119616
Pt   22.058045   22.067868   22.794079
Pt   20.282753   17.778626   21.042756
Pt   22.159957   19.944745   20.871740
Pt   10.528081   18.960939   21.246437
Pt   18.071978   24.071862   28.898722
Pt   18.897220   11.786831   21.393100
Pt   18.151964   21.931402   26.993462
Pt   22.338889   22.455230   30.780583
Pt   17.287096   27.480529   16.591162
Pt   17.842734   21.533809   18.902785
Pt   21.589036   25.917225   18.537993
Pt   21.327029   25.417242   10.742082
Pt   19.817506   21.601728   16.850503
Pt   25.646885   26.264057   18.380951
Pt   20.096453   22.001895   24.881176
Pt   12.194562   18.931072   19.143110
Pt   23.788376   24.060693   18.579205
Pt   15.602433   23.204717   14.872347
Pt   19.867172   23.931776   22.777672
Pt   21.549263   23.588466   12.704052
Pt   13.780605   23.331729   21.058074
Pt   16.108502   21.666416   25.051206
Pt   19.976054   24.151337   26.807943
Pt   17.903036   23.889095   24.902607
Pt   17.362163   29.758056   22.616750
Pt   16.325541   21.867948   28.996717
Pt   15.840075   23.606730   22.967888
Pt   19.668683   28.140678   26.641515
Pt   22.763574   16.391972   29.017326
Pt   20.263978   22.195288   28.862094
Pt   26.254800   22.594264   26.684611
Pt   23.619726   28.281011   22.463434
Pt   23.560331   26.019427   16.459217
Pt   19.717726   23.729629   18.738865
Pt   17.853670   19.196058   12.984357
Pt   13.568060   25.264855   18.837674
Pt   21.821912   23.990280   20.673903
Pt   18.406689   22.125812   30.801982
Pt   25.329773   30.188538   18.231276
Pt   15.587020   25.511917   20.826063
Pt   20.314104   20.040120   26.997175
Pt   13.889799   21.211656   19.089345
Pt   19.279983   31.791236   22.371237
Pt   23.302654   29.910052   16.321308
Pt   16.154509   19.535615   23.156435
Pt   17.581614   27.871127   24.720186
Pt   26.025186   24.547049   24.598966
Pt   19.553193   23.558859   14.741686
Pt   21.542291   30.193091   26.400078
Pt   17.507267   25.591585   18.697431
Pt   19.510170   27.925222   22.629432
Pt   19.852137   19.336749   11.035373
Pt   23.847785   26.398085   24.575391
Pt   27.494916   28.396655   18.227731
Pt   19.250912   27.524122   14.554118
Pt   21.773370   28.316857   28.475046
Pt   24.330461   15.787217   14.928128
Pt   20.795209   11.798189   19.335752
Pt   22.694777   11.940807   17.285736
Pt   24.575363   13.911489   17.023913
Pt   22.123678   17.613749   14.922008
Pt   24.743011   12.141014   19.183668
Pt   22.864792   14.315339   27.125329
Pt   24.878275   12.336303   23.151569
Pt   21.885573   19.564628   12.887371
Pt   22.223516   15.608124   13.103442
Pt   21.989489   17.533819   11.123205
Pt   24.490278   16.001820   18.924192
Pt   28.631764   14.504757   20.924363
Pt   16.406825   15.289204   19.249633
Pt   24.364211   18.106550   20.891107
Pt   22.841104   11.994323   21.247562
Pt   26.103391   20.045977   16.658975
Pt   20.925214   11.997748   23.303865
Pt   22.959527   12.332239   25.193878
Pt   20.656083   13.812194   21.230510
Pt   24.524864   18.276291   24.959320
Pt   20.505426   15.866987   23.197343
Pt   20.200358   24.271388   30.694636
Pt   24.741031   16.384391   27.043916
Pt   28.003526   20.126715   14.576162
Pt   20.019664   17.354853   13.012061
Pt   17.782864   23.659453   20.832413
Pt   20.129450   17.538297   16.986916
Pt   24.098896   17.692185   12.857091
Pt   22.021861   19.735215   16.850934
Pt   24.250376   17.873003   16.825671
Pt   17.735011   21.163097   11.059554
Pt   22.359494   15.722893   17.005181
Pt   22.396625   18.043027   22.999769
Pt   26.186004   20.268104   20.723008
Pt   24.123929   20.004433   18.768293
Pt   20.766012   13.971309   25.285232
Pt   20.416623   17.938432   25.111202
Pt   24.257584   20.208123   22.826598
Pt   22.297275   20.137207   24.901711
Pt   18.486168   17.874710   27.179906
Pt   20.527884   20.308360   30.872455
Pt   22.661197   18.499555   30.814039
Pt   24.429024   20.377311   26.840143
Pt   28.413041   20.722103   26.719082
Pt   20.566880   18.146070   29.088662
Pt   22.434528   20.349408   28.872780
Pt   23.464679   23.616680   10.704962
Pt   19.514317   23.301552   10.853820
Pt   27.664878   24.197140   14.394297
Pt   17.182523   29.558146   18.524030
Pt   25.592151   23.940680   12.494054
Pt   23.725410   21.739570   12.716399
Pt   22.101589   24.369639   28.692283
Pt   21.248028   29.925109   18.310943
Pt   27.615873   28.600763   22.323579
Pt   24.015016   22.134501   20.702054
Pt   23.685265   26.152197   20.506843
Pt   24.163658   22.331561   24.730085
Pt   21.926025   21.863162   18.762681
Pt   21.962835   24.199136   24.706258
Pt   15.745744   25.725881   24.888347
Pt   24.472933   20.632869   30.717998
Pt   19.634106   25.837053   20.658033
Pt   26.478962   20.649438   28.771110
Pt   18.405716   19.988468   29.081213
Pt   26.139308   24.731417   28.581592
Pt   22.196512   22.263423   26.753537
Pt   24.273492   22.523579   28.705917
Pt   21.404686   30.038125   22.414398
Pt   24.145449   24.592667   30.539744
Pt   23.426411   25.782079   12.482981
Pt   21.448932   25.717938   14.575119
Pt   23.674544   23.896563   14.576777
Pt   23.453285   28.103105   18.370643
Pt   25.424882   28.148124   16.279923
Pt   27.711482   26.515191   20.364591
Pt   21.307325   31.977345   24.300196
Pt   25.432086   30.387812   22.280626
Pt   18.241327   19.779491   25.089042
Pt   27.343140   30.299610   20.201204
Pt   21.688433   23.794854   16.672533
Pt   21.866454   26.315450   26.649006
Pt   21.342339   27.894385   16.372630
Pt   22.007574   26.397317   30.458138
Pt   23.404910   30.196533   20.329664
Pt   16.004727   23.818195   26.996140
Pt   23.322413   27.851656   14.384399
Pt   27.842497   26.711085   24.432132
Pt   19.464636   25.671438   16.618057
Pt   17.225443   31.481716   20.501659
Pt   17.388475   25.390911   14.702776
Pt   27.574635   26.311887   16.298785
Pt   23.524293   30.348796   24.396165
Pt   21.634956   28.207354   24.561079
Pt   19.326691   29.776201   20.480979
Pt   26.767595   12.463397   21.089188
Pt   24.677757   14.153527   21.077067
Pt   24.629823   16.204877   23.043240
Pt   26.333085   18.138966   18.757945
Pt   26.650227   14.176614   18.954702
Pt   28.161384   20.303021   18.602376
Pt   26.788320   14.378263   23.047074
Pt   24.850078   14.309614   25.131893
Pt   26.567304   16.258834   20.908000
Pt   23.791806   19.662379   10.889866
Pt   21.784778   21.674053   14.817154
Pt   30.052189   20.370168   16.497656
Pt   30.277080   18.496903   18.634965
Pt   24.018880   19.780808   14.761075
Pt   28.630286   16.523124   22.879474
Pt   27.908356   22.260609   16.490482
Pt   28.256347   18.204539   16.679208
Pt   29.713234   24.465225   16.325130
Pt   26.469902   18.343445   22.873136
Pt   24.646487   18.482847   28.931534
Pt   26.697361   16.456470   24.974805
Pt   28.528607   18.604056   24.801233
Pt   26.597079   18.541479   26.870636
Pt   23.976400   26.570887   28.564512
Pt   26.375044   20.448043   24.785429
Pt   27.680109   22.061899   12.583860
Pt   25.963835   22.193394   18.597408
Pt   31.670320   24.639613   18.331588
Pt   25.505438   26.059275   14.386609
Pt   25.865446   24.319662   20.531004
Pt   31.525391   26.692629   20.231591
Pt   29.726770   22.323079   14.484969
Pt   26.099026   22.393695   22.658068
Pt   26.267501   22.770413   30.491392
Pt   29.768999   26.757332   22.339320
Pt   25.749376   24.154609   16.467629
Pt   28.182831   22.657730   24.616001
Pt   23.737453   28.470350   26.489887
Pt   28.074295   24.792009   26.526276
Pt   27.933872   24.612661   22.514498
Pt   28.221959   22.844210   28.531101
Pt   19.385635   27.741992   18.516981
Pt   19.055018   31.565081   18.464787
Pt   25.844694   22.000236   14.575452
Pt   27.793943   24.414622   18.400524
Pt   25.689883   28.545091   24.402964
Pt   25.788768   26.454083   22.492070
Pt   25.535636   28.324584   20.346018
Pt   29.821361   24.624021   20.387145
Pt   21.731305   26.103067   22.607460
Pt   23.922032   24.257266   22.631468
Pt   17.427719   27.671495   20.655325
Pt   25.918977   26.649999   26.495476
Pt   15.370645   29.440477   20.659808
Pt   26.188141   17.944824   14.761342
Pt   29.916137   22.513842   18.474234
Pt   28.378024   18.429871   20.740099
Pt   26.424710   16.055213   16.841427
Pt   31.683556   22.583817   16.423715
Pt   31.961006   20.738896   18.428113
Pt   30.271831   20.536513   20.573061
Pt   30.326991   20.768695   24.650275
Pt   27.996407   22.423697   20.556013
Pt   31.969620   22.759297   20.407366
Pt   28.298483   20.504422   22.693043
Pt   28.493460   16.321363   18.785200
Pt   30.369751   16.644017   20.760801
Pt   29.983970   24.863871   24.444568
Pt   31.950748   22.975484   24.398175
Pt   31.801144   24.835986   22.305407
Pt   30.131580   22.910711   26.479912
Pt   29.637556   26.555282   18.246392
Pt   30.051533   22.709757   22.486385
Pt   30.413757   18.695645   22.696889
Pt   32.100670   20.941805   22.570305
