309
Generated with con2xyz
Pt   19.588577   21.963011   14.677622
Pt   21.978559   23.184233   18.900910
Pt   22.849939   22.537154   21.588465
Pt   22.196170   20.023744   22.753824
Pt   23.711723   21.885755   24.267515
Pt   24.575045   21.232554   26.950360
Pt   22.711823   21.134986   29.027115
Pt   22.749937   25.345985   14.429770
Pt   23.624093   24.731638   17.134564
Pt   24.505995   24.087843   19.841749
Pt   25.372292   23.425205   22.546552
Pt   26.250696   22.770852   25.255779
Pt   27.057024   22.120544   27.852822
Pt   20.334067   26.464625   15.595583
Pt   21.114632   23.819438   16.189138
Pt   21.203029   25.836595   18.263561
Pt   22.070406   25.189274   20.941066
Pt   22.934507   24.534728   23.631412
Pt   23.804036   23.885177   26.331177
Pt   24.649943   23.217213   28.907786
Pt   17.546495   27.080035   15.131771
Pt   17.728031   21.883983   16.834916
Pt   19.254776   23.753114   18.402068
Pt   20.116108   23.095373   21.076958
Pt   20.980756   22.437311   23.759488
Pt   21.839495   21.777113   26.455826
Pt   21.183577   19.252855   27.586188
Pt   15.684335   24.947475   15.274478
Pt   20.440662   21.319115   17.329268
Pt   21.322846   20.674604   20.053219
Pt   23.398163   18.769571   20.488746
Pt   23.063884   19.358152   25.464199
Pt   25.386898   20.617503   29.455877
Pt   22.296131   22.559235   14.028879
Pt   23.167311   21.938384   16.613874
Pt   24.045766   21.290708   19.326131
Pt   24.916569   20.634012   22.019735
Pt   25.795087   19.971389   24.725713
Pt   26.605002   19.358878   27.328023
Pt   25.294209   26.205700   15.420056
Pt   26.167643   25.632518   18.084269
Pt   27.018549   24.957338   20.807375
Pt   27.897094   24.301788   23.535548
Pt   28.703104   23.660312   26.140990
Pt   21.906794   28.064167   13.938187
Pt   22.861690   27.392211   16.465464
Pt   23.725862   26.743366   19.185664
Pt   24.594520   26.080446   21.905249
Pt   25.480230   25.431304   24.627695
Pt   26.330119   24.775848   27.264867
Pt   19.426567   27.047278   13.128178
Pt   20.399849   28.490412   17.609554
Pt   21.283112   27.834740   20.299518
Pt   22.148782   27.183488   22.976360
Pt   23.026922   26.525932   25.682854
Pt   23.880143   25.856682   28.257743
Pt   19.534376   29.088121   15.033423
Pt   18.419202   26.437518   17.744629
Pt   19.312952   25.764994   20.425906
Pt   20.187786   25.101616   23.119695
Pt   21.053588   24.445018   25.831543
Pt   21.925297   23.781344   28.458212
Pt   17.656102   29.083324   17.128811
Pt   16.501979   24.315475   17.859099
Pt   17.379500   23.653665   20.552227
Pt   18.244141   22.994832   23.224871
Pt   19.113433   22.327038   25.927049
Pt   19.987639   21.677601   28.497191
Pt   24.306627   27.129953   13.074789
Pt   18.944335   19.463051   15.819822
Pt   18.589321   21.239464   19.544978
Pt   19.458768   20.573090   22.242527
Pt   20.319450   19.898113   24.957092
Pt   23.917334   18.752506   28.051640
Pt   18.396752   24.396989   15.725025
Pt   19.797827   18.818031   18.480252
Pt   20.686651   18.174012   21.213216
Pt   21.556918   17.508875   23.943575
Pt   22.407916   16.899386   26.530809
Pt   21.650733   20.060805   15.106779
Pt   22.508602   19.429029   17.750513
Pt   24.570648   17.545201   18.187952
Pt   24.280081   18.098709   23.227269
Pt   25.127273   17.454275   25.867274
Pt   24.361571   20.675219   14.465950
Pt   25.238819   20.052196   17.049294
Pt   26.111901   19.396567   19.766868
Pt   26.993967   18.730350   22.479626
Pt   27.793716   18.112290   25.089020
Pt   24.830903   23.428136   14.904934
Pt   25.709302   22.841602   17.551279
Pt   26.582792   22.169924   20.283162
Pt   27.473962   21.508077   23.010440
Pt   28.311438   20.867895   25.665455
Pt   29.462639   30.707926   16.943315
Pt   28.682480   26.502732   19.055285
Pt   29.534691   25.844497   21.791551
Pt   30.349101   25.203012   24.414114
Pt   29.523723   32.611059   18.893939
Pt   25.379606   28.280154   17.405275
Pt   26.233780   27.606897   20.167466
Pt   27.132093   26.955641   22.901745
Pt   27.990897   26.306600   25.549999
Pt   26.703502   27.988981   13.981274
Pt   22.928269   29.399092   18.515227
Pt   23.805582   28.727746   21.245381
Pt   24.695980   28.072321   23.979051
Pt   25.553655   27.418764   26.624022
Pt   19.649157   31.101915   17.061752
Pt   20.500738   30.489040   19.659133
Pt   21.367396   29.860128   22.339030
Pt   22.244814   29.180852   25.008262
Pt   23.119223   28.506168   27.599879
Pt   17.771232   31.085430   19.125693
Pt   18.504674   28.437996   19.762267
Pt   19.399662   27.755520   22.462623
Pt   20.276225   27.098111   25.184282
Pt   21.166487   26.432016   27.820996
Pt   15.685267   26.965813   17.251256
Pt   16.547341   26.337713   19.885238
Pt   17.447010   25.660585   22.586098
Pt   18.317273   24.995980   25.306797
Pt   16.460258   24.834138   27.420714
Pt   13.820578   24.827045   17.419769
Pt   14.638089   24.203074   20.026790
Pt   15.480862   23.546697   22.707053
Pt   17.253333   22.212141   27.958873
Pt   19.193207   24.314168   27.942721
Pt   14.965927   22.451882   16.351319
Pt   15.831739   21.798297   18.975768
Pt   16.720505   21.132685   21.699078
Pt   17.592064   20.453211   24.427532
Pt   18.454867   19.802969   27.065455
Pt   20.233469   24.447524   13.567803
Pt   17.092064   19.379964   17.966754
Pt   17.957680   18.729678   20.704997
Pt   18.820485   18.040706   23.429641
Pt   19.680559   17.385854   26.069724
Pt   14.330144   19.938361   17.467576
Pt   19.169656   16.308778   19.649085
Pt   20.039537   15.664898   22.388130
Pt   20.893842   15.048138   24.993245
Pt   21.005063   17.564648   16.255164
Pt   21.866759   16.937843   18.903453
Pt   22.107339   13.748717   22.822108
Pt   23.612795   15.596891   24.351970
Pt   23.713119   18.167595   15.541668
Pt   28.440434   16.877821   15.403497
Pt   25.471433   16.865549   20.984601
Pt   26.321409   16.207415   23.628763
Pt   26.408470   18.773511   14.905382
Pt   27.307594   18.147330   17.505573
Pt   28.181312   17.488081   20.214416
Pt   28.968223   16.846909   22.852891
Pt   26.897812   21.562266   15.337469
Pt   27.788447   20.935571   17.993166
Pt   28.679316   20.264668   20.753430
Pt   29.502657   19.610303   23.433886
Pt   27.839759   27.173795   16.346535
Pt   28.221440   23.710163   18.517584
Pt   29.112327   23.037248   21.286521
Pt   29.961103   22.417586   23.967200
Pt   30.305918   28.041410   17.437422
Pt   31.221391   27.439247   20.050831
Pt   31.938023   26.740012   22.648850
Pt   24.420807   29.106633   14.874863
Pt   27.889173   29.128484   18.429611
Pt   28.779931   28.482343   21.144394
Pt   29.639816   27.843496   23.823311
Pt   24.570084   30.996017   16.882501
Pt   25.433114   30.257242   19.463864
Pt   26.341529   29.573316   22.259104
Pt   27.208925   28.936065   24.913357
Pt   30.432290   30.056167   19.422563
Pt   23.008289   31.390170   20.589605
Pt   26.443693   31.573699   24.255623
Pt   24.779868   30.066099   25.968186
Pt   22.142499   32.063423   17.949834
Pt   20.603133   32.545642   21.710373
Pt   24.032521   32.642906   25.221127
Pt   22.345737   31.129427   26.879194
Pt   17.898143   32.962118   21.177239
Pt   18.630038   30.429432   21.809205
Pt   19.511511   29.762055   24.500205
Pt   20.420947   29.084376   27.177126
Pt   15.789723   28.966504   19.234984
Pt   16.643256   28.328887   21.902088
Pt   17.547502   27.643202   24.658907
Pt   18.445025   26.957024   27.312107
Pt   13.818121   26.837435   19.365704
Pt   14.688257   26.199234   22.053684
Pt   15.569255   25.531347   24.743931
Pt   16.371854   22.880254   25.371485
Pt   12.011806   24.684781   19.594412
Pt   12.077285   26.709558   21.531918
Pt   13.574376   23.420165   24.851836
Pt   14.541452   22.757405   27.355287
Pt   13.104613   22.343107   18.498890
Pt   13.972641   21.701056   21.153554
Pt   14.852648   21.027969   23.870089
Pt   15.720846   20.350403   26.527691
Pt   12.479783   19.822242   19.611516
Pt   15.215938   19.300573   20.097949
Pt   16.119365   18.604904   22.899555
Pt   16.965155   17.942744   25.550402
Pt   17.571221   25.059035   13.243780
Pt   16.473377   16.871909   19.138435
Pt   17.326093   16.184994   21.855110
Pt   18.173639   15.531281   24.533122
Pt   16.204211   20.086183   15.442807
Pt   14.033804   14.406209   22.402589
Pt   19.382360   13.253295   23.407132
Pt   18.306872   16.954491   16.974606
Pt   19.807608   12.712042   18.655226
Pt   16.665189   13.797800   22.954822
Pt   25.763802   16.263869   15.981463
Pt   22.770771   16.257500   21.707770
Pt   24.805965   14.349504   22.092924
Pt   27.737303   14.454242   16.552641
Pt   26.627940   15.670047   18.697633
Pt   27.501081   14.954619   21.383903
Pt   30.917434   17.798463   16.289449
Pt   28.564425   13.830822   19.125777
Pt   29.849278   19.025588   18.474908
Pt   28.913028   19.648561   15.751214
Pt   31.770375   17.153958   18.960339
Pt   30.668526   18.326432   21.225503
Pt   27.372929   24.346442   15.862724
Pt   32.302870   19.882723   19.601224
Pt   31.142502   21.177979   21.748903
Pt   29.869596   25.263911   16.821728
Pt   32.237718   26.088251   17.899013
Pt   31.605942   23.957476   22.247793
Pt   27.101230   31.857308   17.834271
Pt   31.170484   29.378438   22.076497
Pt   28.845734   30.473766   23.195116
Pt   27.017559   29.890510   15.864501
Pt   27.946497   31.089471   20.483929
Pt   28.017586   33.041009   22.468741
Pt   24.681941   32.942585   18.885527
Pt   23.893590   30.724049   23.307708
Pt   24.799256   34.732360   20.944441
Pt   22.008810   30.081891   15.927667
Pt   21.473056   31.893122   24.367466
Pt   16.087074   32.835201   23.274717
Pt   19.795022   33.046197   19.120038
Pt   12.192323   28.652328   23.511505
Pt   19.632424   31.649968   26.443415
Pt   12.500019   30.524746   25.429512
Pt   15.924095   30.959671   21.216737
Pt   17.722460   29.598028   26.672371
Pt   13.929712   28.816686   21.337715
Pt   15.033328   30.071291   26.193419
Pt   15.726661   27.455671   26.794951
Pt   16.960609   32.173024   25.921007
Pt   12.837120   26.066101   24.201208
Pt   13.064550   27.990800   26.158564
Pt   15.798333   14.332942   20.295972
Pt   12.806698   16.708132   23.384428
Pt   13.056821   20.869211   25.892029
Pt   10.811914   19.697792   21.777909
Pt   13.420788   19.185516   22.290535
Pt   14.244112   18.482303   25.005085
Pt   16.847274   22.594500   14.316960
Pt   11.654241   19.059532   24.338300
Pt   11.953897   17.347724   20.815442
Pt   14.638264   16.799532   21.293818
Pt   15.575587   17.573072   16.589959
Pt   15.459907   16.101168   24.013768
Pt   17.688434   14.485646   18.198437
Pt   21.241601   14.467899   20.130939
Pt   18.489301   13.759682   20.823713
Pt   23.937526   15.053631   19.410968
Pt   22.440247   13.251399   17.945680
Pt   23.072726   15.656791   16.703617
Pt   25.952046   13.215314   19.823313
Pt   20.634873   12.078818   21.230684
Pt   29.390025   16.176000   17.934687
Pt   30.103760   15.622157   20.580100
Pt   30.330432   21.794927   18.988915
Pt   29.401606   22.489092   16.294406
Pt   30.699888   24.583846   19.539608
Pt   32.743402   22.728865   19.993669
Pt   31.890786   23.375864   17.321028
Pt   33.073765   25.459885   20.482378
Pt   27.177607   33.712961   19.914240
Pt   30.346838   31.929875   21.430841
Pt   25.534365   32.189535   21.549316
Pt   25.643577   34.077518   23.491214
Pt   22.314104   33.947089   19.996259
Pt   23.130443   33.389525   22.642586
Pt   18.748880   32.412286   23.839468
Pt   14.354629   32.515897   25.317144
Pt   16.765077   30.289428   23.963253
Pt   14.815781   28.196756   24.082529
Pt   14.068351   30.803224   23.269398
Pt   13.806984   25.397687   26.799736
Pt   12.103699   21.559018   23.315506
Pt   13.686840   17.437086   18.620204
Pt   12.710774   24.079253   22.195506
Pt   13.176732   15.034855   19.851329
Pt   14.963690   15.129836   17.785271
Pt   11.349325   22.169831   20.657780
Pt   20.368602   15.067010   17.403630
Pt   23.274655   12.621871   20.537041
Pt   25.119692   13.841968   17.235299
Pt   33.210097   18.749985   17.338736
Pt   33.651183   21.384424   17.829866
Pt   31.368237   20.587478   16.665967
