309
Generated with con2xyz
Pt   17.064367   14.586947   18.248469
Pt   19.527087   13.525614   18.980491
Pt   19.344994   15.741928   17.222510
Pt   17.871629   14.719347   20.916437
Pt   15.168126   20.588111   16.776667
Pt   19.219405   18.052530   15.526145
Pt   16.869795   16.879671   16.517840
Pt   13.127940   17.000898   19.543169
Pt   17.657401   17.065541   19.175921
Pt   17.595318   19.414748   17.498448
Pt   16.815968   19.232863   14.942581
Pt   15.393375   15.772994   20.267442
Pt   13.788980   17.256293   22.140406
Pt   16.202173   16.080222   22.899434
Pt   16.025855   18.395876   21.114655
Pt   14.652102   17.501011   24.769299
Pt   17.451176   21.763446   15.770103
Pt   14.693533   15.729446   17.682167
Pt   15.163287   18.278228   18.358273
Pt   15.952352   20.754678   19.451054
Pt   15.812200   23.099758   17.718545
Pt   13.596747   19.541299   20.402416
Pt   14.406355   19.770251   23.087689
Pt   14.276426   22.078736   21.397234
Pt   13.608143   21.839758   18.746940
Pt   22.008326   12.479174   19.729412
Pt   24.489012   11.537359   20.507054
Pt   24.363809   13.624536   18.730824
Pt   22.849538   12.630143   22.411301
Pt   21.719004   16.957994   16.274903
Pt   24.229449   15.898707   17.029952
Pt   24.099981   18.175821   15.362949
Pt   21.848099   14.665646   17.971244
Pt   20.193906   15.978131   19.922488
Pt   22.714897   14.914768   20.680868
Pt   22.599578   17.198496   18.952117
Pt   20.347602   13.664239   21.648543
Pt   18.704536   14.984932   23.596420
Pt   21.210636   13.930218   24.344268
Pt   21.065121   16.203727   22.643760
Pt   19.596573   15.245623   26.259840
Pt   19.117213   20.394541   13.956583
Pt   21.483121   21.604508   13.052500
Pt   30.624486   23.464667   17.244961
Pt   21.589661   19.270890   14.598614
Pt   19.953118   20.622645   16.522979
Pt   22.470949   19.496744   17.269319
Pt   22.335814   21.839656   15.612261
Pt   20.085320   18.271125   18.205654
Pt   18.461849   19.631734   20.205505
Pt   20.970165   18.543278   20.938932
Pt   20.837164   20.861425   19.239017
Pt   18.542872   17.277371   21.888426
Pt   16.913433   18.653728   23.819414
Pt   19.439619   17.529020   24.574022
Pt   19.331202   19.879596   22.886064
Pt   17.073180   16.334212   25.536045
Pt   15.541705   17.748773   27.407186
Pt   17.986186   16.591250   28.184183
Pt   17.817067   18.907637   26.498731
Pt   18.024155   23.046442   31.940533
Pt   22.199578   24.173691   13.958172
Pt   19.821226   22.954377   14.848941
Pt   18.191536   24.302635   16.773895
Pt   20.687806   23.205872   17.522502
Pt   20.567016   25.508262   15.866250
Pt   18.306675   21.996841   18.454534
Pt   16.661019   23.310002   20.431805
Pt   19.197605   22.198066   21.184208
Pt   19.061222   24.534106   19.455282
Pt   16.766383   20.980948   22.150981
Pt   15.149104   22.315026   24.080839
Pt   17.653501   21.233543   24.828867
Pt   17.525986   23.531619   23.147723
Pt   15.289883   20.013849   25.761848
Pt   16.198903   20.275404   28.424987
Pt   16.046040   22.569143   26.747072
Pt   18.947273   26.827748   17.785353
Pt   16.561563   25.621910   18.720820
Pt   14.260110   24.339822   19.713816
Pt   17.455703   25.834698   21.439557
Pt   17.362936   28.113296   19.745460
Pt   15.030945   24.617937   22.396308
Pt   15.916070   24.852950   25.073865
Pt   15.846477   27.126339   23.387842
Pt   15.063601   26.785028   20.705601
Pt   26.752170   14.856405   17.811025
Pt   29.182665   13.952743   18.685786
Pt   29.107804   16.143600   16.986712
Pt   26.859953   12.691630   19.586161
Pt   25.253766   13.927202   21.469644
Pt   27.777888   12.875593   22.237600
Pt   27.656709   15.158586   20.548895
Pt   25.387320   11.734668   23.154702
Pt   23.740061   12.899072   25.099111
Pt   24.671303   13.268797   27.729868
Pt   26.157942   14.190205   24.164372
Pt   23.068598   14.572396   29.632993
Pt   26.494563   19.409074   14.473423
Pt   28.980188   18.409888   15.323983
Pt   27.273746   21.990311   15.539760
Pt   26.636728   17.127890   16.134150
Pt   25.009465   18.429882   18.032780
Pt   27.568311   17.402932   18.829199
Pt   27.441169   19.677943   17.160680
Pt   25.122346   16.164080   19.713898
Pt   23.492365   17.483046   21.695558
Pt   26.023828   16.493747   22.477521
Pt   25.929298   18.731417   20.768090
Pt   23.586758   15.168261   23.414289
Pt   21.979768   16.463177   25.341090
Pt   24.546954   15.443358   26.119097
Pt   24.414780   17.747679   24.419117
Pt   22.133220   14.200596   27.025398
Pt   20.515605   15.523474   28.927568
Pt   21.484249   15.932254   31.453991
Pt   22.935736   16.753640   28.032207
Pt   22.223246   18.417192   32.502631
Pt   23.976755   20.482582   13.705022
Pt   27.140343   24.287586   13.868807
Pt   23.847601   22.803398   12.254503
Pt   29.594584   23.207589   14.667599
Pt   24.868105   20.714880   16.379678
Pt   23.235444   22.087293   18.323596
Pt   25.802474   21.009598   19.097931
Pt   25.641499   23.312892   17.481628
Pt   23.377338   19.777589   19.997332
Pt   21.743562   21.115918   21.946767
Pt   24.292853   20.039451   22.712028
Pt   24.164590   22.350096   21.019063
Pt   21.867597   18.795561   23.642937
Pt   20.234541   20.137700   25.563953
Pt   22.800927   19.061319   26.335425
Pt   22.657777   21.371878   24.654761
Pt   20.365830   17.791819   27.239394
Pt   16.506208   18.036270   29.982476
Pt   21.319611   18.125284   29.905190
Pt   21.189427   20.423808   28.207821
Pt   18.969111   16.958543   30.771288
Pt   19.699444   19.454334   31.824116
Pt   26.348656   21.751926   12.944422
Pt   22.972009   26.716268   14.970214
Pt   24.745515   23.065841   14.774886
Pt   25.521385   25.617545   15.789552
Pt   23.074570   24.430182   16.635967
Pt   21.460859   25.765102   18.540556
Pt   24.025295   24.671123   19.349442
Pt   23.904153   26.988765   17.661829
Pt   21.609862   23.430219   20.246631
Pt   19.984376   24.736336   22.191719
Pt   22.530642   23.682924   22.961868
Pt   22.407219   25.988846   21.266108
Pt   20.099204   22.448993   23.891004
Pt   18.429413   23.796358   25.834933
Pt   21.020483   22.722990   26.581778
Pt   20.890745   25.008078   24.908098
Pt   18.567542   21.504147   27.490805
Pt   16.969641   22.818649   29.422994
Pt   19.558833   21.747742   30.153063
Pt   19.384659   24.059593   28.529023
Pt   17.232120   20.529158   31.012940
Pt   17.843193   25.318226   30.368336
Pt   25.369449   27.815513   14.243978
Pt   21.367748   28.043102   16.875168
Pt   19.748822   29.339825   18.784233
Pt   22.292224   28.302916   19.574968
Pt   23.791817   29.176061   16.065622
Pt   19.837497   27.068948   20.475168
Pt   18.160958   28.404539   22.422330
Pt   20.772382   27.257545   23.196940
Pt   20.635049   31.700080   19.891528
Pt   18.310237   26.076813   24.142670
Pt   16.705601   27.364858   26.088314
Pt   19.257039   26.338807   26.858409
Pt   19.180157   28.581922   25.130330
Pt   16.836923   25.101499   27.766956
Pt   17.720154   27.578421   28.712422
Pt   17.659957   29.770774   27.028660
Pt   25.646300   29.787560   21.365170
Pt   20.678054   29.552267   21.538562
Pt   18.293384   30.569825   20.750961
Pt   16.747650   29.566670   24.457015
Pt   19.984562   31.039358   26.104914
Pt   30.108763   16.353820   19.607185
Pt   30.103916   14.135578   21.323804
Pt   28.563786   15.415689   23.243757
Pt   28.630348   13.193222   24.896934
Pt   30.952753   14.425286   23.977546
Pt   26.245466   12.055873   25.801178
Pt   27.098534   14.419197   26.894510
Pt   29.492801   15.630466   25.972458
Pt   28.802320   20.684658   13.747652
Pt   29.984364   18.624120   17.921116
Pt   28.399877   19.955487   19.856422
Pt   30.904672   18.877152   20.598683
Pt   30.775147   21.164445   18.920278
Pt   28.517381   17.694894   21.539275
Pt   26.856208   19.002098   23.492326
Pt   29.406684   17.932883   24.268855
Pt   29.317452   20.229247   22.560010
Pt   26.986728   16.705380   25.229488
Pt   25.373065   17.990544   27.147153
Pt   27.893061   16.957836   27.906825
Pt   27.790371   19.240351   26.225620
Pt   25.486124   15.714392   28.810657
Pt   23.879487   17.036306   30.716854
Pt   26.285288   18.256051   29.815459
Pt   24.625731   25.329449   13.188974
Pt   28.051718   24.544639   16.548780
Pt   29.852382   20.913315   16.261734
Pt   27.872444   26.785486   14.925958
Pt   28.261521   22.239912   18.207047
Pt   26.597595   23.590318   20.130598
Pt   29.188059   22.514690   20.884546
Pt   29.019191   24.831135   19.208984
Pt   26.732697   21.280804   21.790819
Pt   25.077115   22.600853   23.717832
Pt   27.644585   21.550509   24.492774
Pt   27.514293   23.839729   22.815009
Pt   25.220198   20.298551   25.425258
Pt   23.591124   21.643267   27.353264
Pt   26.156375   20.540323   28.148360
Pt   25.978153   22.859540   26.412352
Pt   23.764034   19.317027   29.049461
Pt   22.093590   20.677106   30.912754
Pt   24.646840   19.578283   31.723560
Pt   24.502742   21.901999   30.066591
Pt   18.783513   19.194802   29.148695
Pt   22.991324   20.939216   33.432910
Pt   30.320385   25.708275   15.696703
Pt   26.332063   28.211954   16.780720
Pt   28.849257   27.143510   17.525530
Pt   26.469550   25.937567   18.462428
Pt   24.853772   27.262899   20.353110
Pt   27.400588   26.187573   21.132868
Pt   27.251455   28.474543   19.461896
Pt   24.957295   24.925675   22.036267
Pt   23.322068   26.246880   23.979772
Pt   25.846191   25.158049   24.728068
Pt   25.766791   27.511400   23.040050
Pt   23.436136   23.947479   25.673147
Pt   21.809407   25.300817   27.644442
Pt   24.345643   24.234689   28.401035
Pt   24.219577   26.520128   26.725068
Pt   21.959346   23.018621   29.300944
Pt   20.333706   24.324397   31.215583
Pt   22.854901   23.255136   31.975295
Pt   22.725361   25.556564   30.315068
Pt   20.486867   21.986285   32.747080
Pt   24.722646   29.532744   18.682307
Pt   23.122098   30.833927   20.608204
Pt   28.166531   28.719136   22.144545
Pt   23.246747   28.560211   22.277906
Pt   22.369359   32.191615   25.189966
Pt   24.122250   28.811634   25.004934
Pt   21.589376   29.808681   24.223261
Pt   21.707010   27.566912   25.964027
Pt   20.089954   28.871747   27.879896
Pt   22.602541   27.825631   28.651782
Pt   22.478376   30.103231   26.958427
Pt   20.191518   26.603705   29.556184
Pt   22.197780   30.479436   17.965433
Pt   21.467327   32.001073   22.548630
Pt   19.055309   30.856337   23.453879
Pt   31.793837   16.856663   24.979468
Pt   31.670200   21.391268   21.563596
Pt   31.011663   16.587686   22.291556
Pt   30.203737   20.495380   25.273179
Pt   32.567488   19.348752   25.961220
Pt   31.794786   19.088022   23.284484
Pt   30.283855   18.165944   26.971250
Pt   28.679591   19.503719   28.901288
Pt   31.022991   20.714971   27.929022
Pt   31.281273   25.998610   18.268492
Pt   31.534079   23.722162   19.882684
Pt   29.946144   25.081503   21.908132
Pt   32.444100   23.906490   22.508709
Pt   32.180682   26.248230   20.895327
Pt   30.104448   22.800406   23.604352
Pt   28.412409   24.124666   25.539104
Pt   32.573639   21.599074   24.202526
Pt   27.288163   30.136540   26.685728
Pt   28.549732   21.809703   27.209451
Pt   26.874625   23.123138   29.110676
Pt   29.325467   22.057222   29.827432
Pt   33.152595   24.093388   25.132906
Pt   27.038869   20.800753   30.821739
Pt   25.352636   22.140894   32.629018
Pt   27.660969   23.333725   31.671097
Pt   29.767009   27.396600   20.198077
Pt   32.977719   26.334701   23.471094
Pt   28.949050   28.884218   24.821392
Pt   28.292990   26.412858   23.833988
Pt   26.622990   27.708022   25.751035
Pt   29.117594   26.675176   26.556121
Pt   30.638791   27.603794   22.873119
Pt   26.760808   25.432323   27.451766
Pt   25.126294   26.769794   29.402876
Pt   27.574825   25.633338   30.079570
Pt   24.851964   31.238749   25.964364
Pt   25.239683   24.478019   31.075324
Pt   26.528745   30.040937   24.051086
Pt   24.009605   31.092277   23.289162
Pt   27.449942   27.928559   28.397636
Pt   24.989953   29.054292   27.723448
Pt   30.916282   23.085793   26.346432
Pt   30.788660   25.385084   24.658811
Pt   33.228787   21.833725   26.776365
Pt   29.243199   24.378990   28.239943
