309
Generated with con2xyz
Pt   13.503104   17.243902   20.958576
Pt   15.491175   15.375578   21.295844
Pt   15.604673   17.216522   19.176217
Pt   15.004784   17.346657   23.240109
Pt   11.804746   21.036024   18.440020
Pt   15.783965   19.169652   17.088776
Pt   13.825707   21.088646   16.740954
Pt   13.571176   19.100302   18.844613
Pt   13.056234   21.204840   20.783081
Pt   15.191911   19.326722   21.114715
Pt   15.308919   21.273210   19.016296
Pt   13.027970   19.268357   22.839797
Pt   12.673962   21.341968   24.693566
Pt   14.578071   19.420982   25.145696
Pt   14.780429   21.405482   23.033973
Pt   14.237379   21.533977   26.970853
Pt   15.525264   23.259482   16.917257
Pt   13.318619   23.199679   18.672375
Pt   13.013565   25.207937   20.622282
Pt   14.934649   23.355717   20.944363
Pt   15.095015   25.351411   18.834306
Pt   12.776891   23.288041   22.668544
Pt   14.312364   23.517777   24.973823
Pt   14.485986   25.474667   22.897705
Pt   14.747192   27.345359   20.793599
Pt   17.561755   13.546614   21.655035
Pt   19.640383   11.857427   21.932735
Pt   19.801881   13.551947   19.875636
Pt   19.214907   13.677029   23.939663
Pt   17.868565   17.297278   17.460724
Pt   19.977778   15.460822   17.825741
Pt   20.149352   17.375947   15.778912
Pt   17.685645   15.372714   19.543940
Pt   17.264889   17.416839   21.491621
Pt   19.382243   15.552350   21.861575
Pt   19.538666   17.485837   19.750405
Pt   17.098122   15.482796   23.599149
Pt   16.677058   17.539143   25.519271
Pt   18.785488   15.674787   25.883038
Pt   18.937115   17.606769   23.813219
Pt   18.346672   17.745206   27.777117
Pt   16.046315   21.157844   15.088132
Pt   18.292472   21.232137   13.429292
Pt   28.381323   21.866696   13.033973
Pt   18.045083   19.249195   15.396657
Pt   17.593125   21.346814   17.304505
Pt   19.704465   19.434500   17.674367
Pt   19.877144   21.424448   15.619677
Pt   17.432869   19.360468   19.367238
Pt   17.057884   21.478023   21.311849
Pt   19.134445   19.583266   21.698395
Pt   19.304124   21.551734   19.602184
Pt   16.838488   19.480694   23.442745
Pt   16.401657   21.605019   25.343685
Pt   18.500924   19.687426   25.721416
Pt   18.694299   21.681033   23.620831
Pt   16.239549   19.629551   27.411961
Pt   15.901742   21.735903   29.222165
Pt   17.923860   19.830450   29.665532
Pt   18.076460   21.808868   27.609550
Pt   17.617771   21.942978   31.384435
Pt   20.063546   23.406167   13.561678
Pt   17.781432   23.325217   15.226898
Pt   17.347367   25.412518   17.121531
Pt   19.436164   23.538940   17.498694
Pt   19.618603   25.485810   15.442971
Pt   17.166815   23.460942   19.192414
Pt   16.736041   25.539183   21.147246
Pt   18.863560   23.648658   21.525734
Pt   19.004100   25.615308   19.402174
Pt   16.567152   23.602351   23.269733
Pt   16.139779   25.676985   25.179651
Pt   18.226227   23.802112   25.551228
Pt   18.394683   25.752118   23.473140
Pt   15.970200   23.709798   27.242950
Pt   17.654192   23.921797   29.494104
Pt   17.807878   25.878601   27.440572
Pt   19.190775   27.543438   17.329013
Pt   16.919729   27.483917   19.042731
Pt   16.579328   29.460907   20.994230
Pt   18.583468   27.675427   21.354008
Pt   18.776131   29.600658   19.244202
Pt   16.313270   27.615718   23.085080
Pt   17.977135   27.810929   25.381925
Pt   18.165030   29.735626   23.297537
Pt   18.458288   31.483440   21.208117
Pt   22.106722   13.625670   18.203367
Pt   24.228053   11.975820   18.669244
Pt   24.426309   13.790815   16.603139
Pt   21.947177   11.833536   20.324041
Pt   21.522132   13.718311   22.276491
Pt   25.833467   10.459487   23.014912
Pt   23.829320   13.848032   20.552325
Pt   23.670369   11.907666   22.569639
Pt   20.931650   13.896146   26.270270
Pt   23.105021   12.301122   26.686583
Pt   23.208110   13.906359   24.549348
Pt   22.625084   14.193477   28.528630
Pt   22.451063   17.469609   14.108800
Pt   24.600552   15.706363   14.568860
Pt   24.331828   19.646471   14.381880
Pt   22.290317   15.537415   16.150189
Pt   21.836241   17.565805   18.062234
Pt   24.004588   15.737489   18.450107
Pt   24.169833   17.668400   16.394433
Pt   21.667653   15.639848   20.140822
Pt   21.255252   17.720351   22.081106
Pt   23.397693   15.884647   22.483423
Pt   23.572814   17.799348   20.382056
Pt   21.068105   15.764652   24.191718
Pt   20.630632   17.813750   26.099273
Pt   22.805648   15.967701   26.476483
Pt   22.965399   17.932533   24.389060
Pt   20.474115   15.909496   28.168644
Pt   20.040568   17.976764   30.048792
Pt   22.198515   16.226338   30.378342
Pt   22.365045   18.039335   28.369989
Pt   21.780283   18.296046   32.151918
Pt   20.331145   19.324250   13.730239
Pt   20.574252   21.316153   11.865292
Pt   22.658935   19.477688   12.178965
Pt   26.589079   19.746408   12.774960
Pt   21.995324   19.511000   16.014043
Pt   21.584569   21.628903   17.921089
Pt   23.743289   19.736720   18.315398
Pt   23.898446   21.707925   16.303016
Pt   21.424620   19.663139   19.990539
Pt   20.991636   21.759783   21.910399
Pt   23.127756   19.879180   22.295313
Pt   23.298267   21.837640   20.205665
Pt   20.816833   19.792337   24.001575
Pt   20.377055   21.887106   25.897331
Pt   22.532041   19.997872   26.281433
Pt   22.689836   21.968587   24.212622
Pt   20.194133   19.889249   27.974710
Pt   19.812477   22.018378   29.833047
Pt   21.935678   20.151898   30.213989
Pt   22.105332   22.095384   28.122818
Pt   19.682344   20.107861   31.825612
Pt   21.501432   22.229777   32.104232
Pt   22.398820   23.428821   12.016833
Pt   21.915901   25.551128   13.777034
Pt   22.203978   21.508423   13.997500
Pt   24.065748   23.658413   14.211379
Pt   21.726821   23.621607   15.838312
Pt   21.302267   25.693992   17.707318
Pt   23.467677   23.806624   18.133776
Pt   23.638777   25.767899   16.045255
Pt   21.154490   23.723633   19.815085
Pt   20.714068   25.790104   21.737193
Pt   22.860150   23.927442   22.122922
Pt   23.036302   25.869002   20.024525
Pt   20.545586   23.853867   23.831503
Pt   20.085908   25.959550   25.762758
Pt   22.257636   24.067744   26.114025
Pt   22.426066   26.000421   24.051836
Pt   19.918618   24.012795   27.803924
Pt   19.507001   26.073607   29.698857
Pt   21.670164   24.175111   30.041733
Pt   21.825736   26.160918   28.031768
Pt   19.425439   24.067602   31.650716
Pt   21.262922   26.176930   31.792476
Pt   23.800348   27.618128   14.073684
Pt   21.494299   27.620927   15.652411
Pt   21.060597   29.667979   17.550773
Pt   23.211008   27.825861   17.932285
Pt   23.375826   29.665978   15.951988
Pt   20.869966   27.735627   19.608595
Pt   20.488472   29.761615   21.572052
Pt   22.607206   27.878014   21.955741
Pt   22.781622   29.833396   19.876312
Pt   20.254752   27.871422   23.689182
Pt   19.847743   29.935186   25.581167
Pt   21.995202   28.090265   25.972835
Pt   22.179231   29.965761   23.862098
Pt   19.681075   28.017852   27.652893
Pt   21.415490   28.137547   29.837856
Pt   21.586339   30.058143   27.788228
Pt   22.954857   31.617555   17.872564
Pt   20.696993   31.614024   19.529165
Pt   22.354846   31.891698   21.782876
Pt   20.103541   31.745097   23.459720
Pt   21.770384   31.878999   25.706432
Pt   26.169856   13.925926   18.810056
Pt   25.961360   12.053998   20.885041
Pt   25.538062   13.993479   22.856902
Pt   27.669296   12.339257   23.222315
Pt   27.856914   14.119583   21.110681
Pt   25.336730   12.191057   24.970707
Pt   24.982784   14.195909   26.901427
Pt   27.255720   14.244478   25.180503
Pt   24.742852   17.657085   12.614609
Pt   26.292277   15.833457   16.774332
Pt   25.918585   17.859426   18.662357
Pt   28.000302   16.048082   19.068637
Pt   26.465311   17.775948   14.725815
Pt   25.741429   15.943674   20.746070
Pt   25.281527   18.019363   22.689756
Pt   27.412875   16.135864   23.067775
Pt   27.601634   18.082766   20.957825
Pt   25.124899   16.050168   24.795762
Pt   24.698632   18.112849   26.701493
Pt   26.829944   16.304141   27.089324
Pt   26.996131   18.206435   25.011690
Pt   24.518334   16.226293   28.786499
Pt   24.086309   18.281238   30.657344
Pt   26.388180   18.349614   28.977963
Pt   24.500362   21.587951   12.319826
Pt   26.190132   21.791716   14.597762
Pt   28.322568   19.923561   14.946327
Pt   24.216078   25.537061   12.291947
Pt   26.088562   19.794069   16.628580
Pt   25.625857   21.912210   18.526722
Pt   27.769739   20.001802   18.871093
Pt   27.924530   22.002750   16.826461
Pt   25.450869   19.949199   20.591637
Pt   24.988507   22.042344   22.506580
Pt   27.148931   20.182714   22.899894
Pt   27.292175   22.122055   20.813662
Pt   24.841226   20.086994   24.599514
Pt   24.414824   22.181773   26.496379
Pt   26.555509   20.279080   26.912759
Pt   26.692586   22.259805   24.795459
Pt   24.271667   20.189381   28.578929
Pt   23.793329   22.307726   30.424208
Pt   25.938537   20.421724   30.857994
Pt   26.117159   22.394209   28.800765
Pt   23.603335   20.397509   32.413550
Pt   25.420952   22.511453   32.556218
Pt   26.313462   23.708273   12.601007
Pt   25.960437   25.841302   14.379152
Pt   28.072716   23.978039   14.753675
Pt   25.810548   23.917064   16.450646
Pt   25.376101   25.986914   18.316305
Pt   27.503321   24.123000   18.712035
Pt   27.656596   26.063207   16.643658
Pt   25.174142   24.010004   20.413118
Pt   24.750752   26.077807   22.339189
Pt   26.847847   24.205189   22.717010
Pt   27.072604   26.185856   20.606449
Pt   24.564920   24.142770   24.432055
Pt   24.157110   26.248121   26.366143
Pt   26.289503   24.383253   26.740230
Pt   26.456509   26.316566   24.673192
Pt   24.000819   24.305099   28.406886
Pt   23.548700   26.363080   30.300185
Pt   25.657265   24.500778   30.688781
Pt   25.839569   26.455912   28.629520
Pt   23.336554   24.350149   32.238233
Pt   25.526991   27.909192   16.252282
Pt   25.108001   29.952280   18.154873
Pt   27.233098   28.113672   18.529082
Pt   24.955902   28.024194   20.220652
Pt   24.473893   30.039618   22.166895
Pt   26.632951   28.240045   22.554816
Pt   26.792366   30.161984   20.441323
Pt   24.338755   28.156863   24.295145
Pt   23.892581   30.218395   26.182331
Pt   26.012998   28.376808   26.574599
Pt   26.178030   30.296424   24.489812
Pt   23.709938   28.304003   28.252070
Pt   24.615573   31.887264   20.113939
Pt   26.266035   32.031733   22.372093
Pt   24.020041   32.019422   24.043339
Pt   29.473862   14.411568   23.423330
Pt   29.858479   18.197002   19.281185
Pt   29.695605   16.228275   21.317391
Pt   29.257798   18.276783   23.274502
Pt   31.275181   16.503868   23.631239
Pt   31.519598   18.353763   21.515472
Pt   29.096229   16.357196   25.385339
Pt   28.666510   18.446157   27.297495
Pt   30.907057   18.492148   25.607375
Pt   30.094073   22.061334   15.197114
Pt   30.026932   20.140138   17.220349
Pt   29.581803   22.211569   19.115113
Pt   31.662429   20.354676   19.489263
Pt   31.684226   22.293212   17.445026
Pt   29.444191   20.257776   21.158072
Pt   29.024863   22.388411   23.107281
Pt   31.022739   20.471241   23.467220
Pt   31.344291   22.481550   21.352516
Pt   28.838827   20.390759   25.223357
Pt   28.383198   22.477246   27.091142
Pt   30.470636   20.635457   27.454168
Pt   30.729177   22.621038   25.451551
Pt   28.231244   20.508611   29.182271
Pt   27.704144   22.595194   30.990568
Pt   29.890219   22.688219   29.299822
Pt   29.756826   24.194244   17.005561
Pt   29.345114   26.266876   18.921323
Pt   31.328644   24.380805   19.279938
Pt   29.184760   24.297301   21.022083
Pt   28.723181   26.346043   22.933385
Pt   30.897723   24.514627   23.318773
Pt   30.907209   26.420348   21.230305
Pt   28.581233   24.429061   25.021712
Pt   28.130088   26.529129   26.945614
Pt   30.116163   24.645046   27.311046
Pt   30.307015   26.549933   25.197393
Pt   27.937463   24.590859   29.026835
Pt   28.909446   28.322682   20.824823
Pt   28.388789   30.294230   22.753546
Pt   30.405141   28.425826   23.121390
Pt   28.294766   28.454630   24.872300
Pt   32.997731   18.638198   23.823669
Pt   33.189394   20.505686   21.816677
Pt   32.815741   22.505887   23.669405
Pt   32.610504   20.635038   25.674486
