309
Generated with con2xyz
Pt   12.198972   23.247746   22.454823
Pt   14.430150   19.558082   16.299424
Pt   20.752552   16.096407   14.261620
Pt   14.514336   17.381637   22.337744
Pt   14.145873   23.656776   16.448415
Pt   12.478297   21.496310   16.436385
Pt   18.219716   21.681645   22.539539
Pt   24.190975   24.277537   18.620249
Pt   14.389069   21.689073   14.447923
Pt   17.968430   23.521723   28.577976
Pt   14.138616   23.482484   20.504870
Pt   25.821406   28.266700   24.888604
Pt   13.921544   25.451164   22.613934
Pt   16.428636   19.783057   14.330156
Pt   22.663413   15.864410   24.434903
Pt   15.983946   25.808403   16.529481
Pt   18.653035   15.711712   20.298811
Pt   17.893222   25.744845   22.686672
Pt   16.521918   17.582261   20.335675
Pt   18.092703   23.771424   20.562134
Pt   22.250331   21.980743   22.586502
Pt   16.170874   21.472025   24.540335
Pt   18.441709   19.984826   12.376369
Pt   16.150249   23.856901   14.467787
Pt   16.453697   17.419763   24.399152
Pt   16.857708   13.678252   20.204668
Pt   16.611625   15.509148   22.318622
Pt   18.294350   21.953055   14.428849
Pt   18.484557   17.622334   22.428776
Pt   12.497931   19.336995   22.410600
Pt   19.809086   28.002951   18.656069
Pt   14.811060   15.523709   20.244461
Pt   18.115582   23.936359   16.486931
Pt   16.390212   19.619298   18.348644
Pt   22.131204   26.320237   10.827299
Pt   14.043122   23.383284   24.556874
Pt   22.659671   18.138208   14.258589
Pt   22.479349   20.115205   16.433367
Pt   22.301795   22.101332   18.525513
Pt   21.661268   29.979312   22.827409
Pt   18.748705   13.681888   22.274698
Pt   17.669070   29.854565   18.699077
Pt   12.377846   21.225504   24.384082
Pt   21.541232   32.039527   20.867698
Pt   23.968033   26.116330   24.813364
Pt   15.933423   25.667261   20.598165
Pt   16.338476   19.483149   22.451196
Pt   19.705209   30.064582   16.718961
Pt   23.494237   32.054686   22.880197
Pt   21.720659   27.821572   28.679193
Pt   26.272564   24.509134   16.627506
Pt   14.307171   21.533884   18.432850
Pt   26.290136   22.269538   22.654149
Pt   13.887605   27.444629   20.628843
Pt   20.822695   13.875864   20.261871
Pt   25.057939   12.328726   18.210304
Pt   20.861387   14.051054   16.164737
Pt   26.789371   16.309559   20.428387
Pt   20.579733   17.974900   16.303672
Pt   23.080088   12.104352   20.226198
Pt   24.775808   18.495327   12.445473
Pt   18.702451   15.856764   16.218004
Pt   18.598697   15.576606   24.372027
Pt   22.370726   19.889622   24.556978
Pt   18.578559   17.899142   14.288100
Pt   18.993133   11.875750   20.164501
Pt   22.779196   13.893020   26.294181
Pt   24.685486   15.933413   26.456762
Pt   20.376550   19.803653   22.504244
Pt   22.017721   23.780915   28.709157
Pt   16.270953   21.743710   16.398199
Pt   30.414927   20.651058   16.627896
Pt   24.835563   16.387170   14.332757
Pt   20.152951   24.150512   14.539689
Pt   14.258379   21.399220   22.445190
Pt   20.300776   22.020394   16.478944
Pt   24.272442   24.446732   14.614241
Pt   12.248949   23.380394   18.493970
Pt   18.407319   19.724315   20.433752
Pt   20.543587   17.862644   20.400966
Pt   28.493932   22.628557   16.550372
Pt   16.552063   17.696249   16.268772
Pt   24.132955   24.148301   22.688909
Pt   18.797123   13.826368   18.185100
Pt   26.438399   20.159179   24.626761
Pt   18.269093   21.813288   18.456655
Pt   22.143094   21.671733   30.603942
Pt   21.188727   10.188582   20.131793
Pt   19.808471   25.716870   28.686049
Pt   20.347154   19.494311   30.357449
Pt   15.808460   27.731347   18.618129
Pt   17.606875   31.604978   20.799692
Pt   28.262093   24.715836   14.697858
Pt   18.003959   26.017786   14.563709
Pt   20.685780   15.917424   18.272091
Pt   27.900991   28.623568   18.815078
Pt   16.295409   19.366225   26.479613
Pt   14.322576   19.377055   20.368690
Pt   19.683637   29.894232   20.779086
Pt   23.792194   30.362775   16.787895
Pt   12.293026   21.316935   20.409593
Pt   20.053749   26.214766   12.605279
Pt   12.545650   19.479063   18.286048
Pt   14.234489   21.278537   26.428374
Pt   15.990846   23.455092   26.599623
Pt   24.248286   19.776400   30.418232
Pt   17.722683   27.672325   24.752178
Pt   16.191469   21.355356   28.364567
Pt   18.307766   19.564981   24.504495
Pt   21.837674   25.800346   30.565151
Pt   26.559392   18.095175   26.555724
Pt   20.207906   21.767593   24.577505
Pt   20.075082   21.628803   28.659306
Pt   27.834752   28.488415   22.900741
Pt   24.253550   24.496819   10.737056
Pt   13.972133   25.587144   18.521822
Pt   18.184960   24.076113   12.517828
Pt   21.785524   30.194372   14.826289
Pt   19.983707   26.093675   16.582832
Pt   22.440296   17.721615   30.274677
Pt   23.697986   30.191179   20.844885
Pt   15.756497   27.599153   22.698106
Pt   20.404697   17.559780   28.435858
Pt   12.146162   25.289131   20.538499
Pt   23.554376   32.171369   18.914383
Pt   26.139814   26.594742   14.704475
Pt   14.334544   19.282901   24.443675
Pt   19.586288   29.818065   24.826564
Pt   24.298820   22.193942   20.584927
Pt   22.244714   24.319940   12.619149
Pt   17.613749   29.725896   22.792469
Pt   14.562284   17.519625   18.276111
Pt   19.754331   27.864990   22.784764
Pt   18.430709   22.117869   10.639839
Pt   23.665587   30.118377   24.894886
Pt   24.142344   26.508215   12.677349
Pt   21.960053   28.277292   12.780354
Pt   18.017968   23.668713   24.644706
Pt   22.596530   18.080868   18.407463
Pt   20.938468   12.034806   18.119560
Pt   26.961348   12.506265   20.300896
Pt   23.049248   12.303239   16.201860
Pt   18.537094   17.762986   18.299244
Pt   26.632676   20.575406   12.517568
Pt   22.830622   13.957502   22.351135
Pt   28.832793   14.524330   20.399709
Pt   22.069286   26.301170   14.630091
Pt   22.541480   20.216835   12.369828
Pt   20.480311   20.298835   10.560082
Pt   22.931505   14.335360   14.357015
Pt   24.903833   14.221286   20.329688
Pt   16.662472   15.651802   18.218545
Pt   22.706446   16.030126   20.365999
Pt   23.034469   10.280595   22.198234
Pt   26.301451   24.661518   12.662445
Pt   20.758718   13.748471   24.346975
Pt   20.885957   11.880720   22.265710
Pt   20.635893   15.775599   22.390265
Pt   22.492793   17.789726   26.503235
Pt   20.074513   23.855798   22.628631
Pt   19.967908   23.664512   30.528666
Pt   24.856146   14.032836   24.398262
Pt   26.425600   22.538497   14.591058
Pt   18.408882   19.833341   16.346671
Pt   17.943818   25.882032   18.568338
Pt   28.689749   18.553032   16.447769
Pt   24.479814   20.228338   18.486650
Pt   16.113454   23.732391   18.473032
Pt   24.677373   18.277442   16.369597
Pt   16.387680   21.902203   12.499686
Pt   24.800578   16.226479   18.331755
Pt   24.418208   20.100772   22.564493
Pt   28.516047   20.539189   18.548589
Pt   26.438751   20.318473   20.556718
Pt   20.467605   17.702956   24.480893
Pt   20.592799   15.638943   26.401008
Pt   24.569433   18.005886   24.545324
Pt   22.542896   17.944840   22.468971
Pt   20.289928   19.661885   26.544418
Pt   22.075206   23.937559   24.682852
Pt   18.425003   17.504498   26.434827
Pt   24.399421   19.962135   26.607622
Pt   28.390338   20.241982   26.669725
Pt   22.194671   21.861715   26.623690
Pt   21.957571   25.998852   22.730946
Pt   24.355105   22.312554   16.550290
Pt   20.475783   20.035929   14.385214
Pt   21.897050   28.227567   16.686286
Pt   19.949759   25.918737   20.654899
Pt   24.628726   20.595841   10.631956
Pt   24.402574   22.451191   12.591099
Pt   21.894574   25.896731   26.776183
Pt   17.831580   27.939174   16.618437
Pt   21.492324   31.791351   24.808690
Pt   26.667518   18.356887   18.427289
Pt   26.004280   26.335352   22.816478
Pt   26.062987   24.110478   28.714525
Pt   22.129853   24.062988   20.620194
Pt   24.082365   24.030897   26.759574
Pt   16.064393   23.593949   22.596990
Pt   26.348238   20.048652   28.594794
Pt   16.282603   21.578532   20.467594
Pt   24.240552   22.061119   24.636901
Pt   21.959423   23.757266   32.252999
Pt   23.918704   26.016787   28.755579
Pt   18.161113   21.553791   26.558883
Pt   28.143297   22.220199   28.557146
Pt   22.013841   26.132233   18.646771
Pt   22.612062   15.786063   28.324409
Pt   26.823392   16.430563   16.345580
Pt   20.425375   19.934342   18.423270
Pt   20.292877   24.209489   10.669487
Pt   21.844330   28.011549   20.749715
Pt   25.693649   30.323537   22.926826
Pt   28.121947   24.473960   22.794569
Pt   17.780733   27.802739   20.689164
Pt   21.722877   30.104843   18.795382
Pt   20.003666   23.733931   26.691241
Pt   25.883526   28.394723   20.819060
Pt   20.126206   23.984638   18.555303
Pt   26.223912   22.140310   26.690656
Pt   27.645939   30.454529   20.914290
Pt   19.877771   25.817735   24.745842
Pt   19.598299   31.874429   18.848506
Pt   15.878808   25.539235   24.661679
Pt   23.963880   28.442960   14.723497
Pt   27.952098   26.421845   24.865820
Pt   19.886629   28.152543   14.651426
Pt   25.492579   32.193345   20.931756
Pt   21.603086   29.847221   26.771466
Pt   23.083216   10.426880   18.128720
Pt   17.838150   25.610908   26.692007
Pt   21.612917   32.016452   16.906240
Pt   25.758519   30.454306   18.832187
Pt   26.946605   14.386075   18.307753
Pt   25.009085   12.181963   22.308338
Pt   22.950244   12.017685   24.249939
Pt   24.957662   14.326482   16.241359
Pt   22.884435   14.105670   18.232753
Pt   26.179133   24.347737   20.683326
Pt   26.898984   14.257563   22.414418
Pt   24.598080   18.155474   20.463971
Pt   28.584132   18.306086   24.573800
Pt   22.421336   22.359796   10.570681
Pt   28.308827   22.765615   12.698222
Pt   26.727871   18.489924   14.418728
Pt   32.257075   20.784751   22.698909
Pt   20.380866   22.160655   12.519809
Pt   24.532456   17.857999   28.495620
Pt   30.547842   18.644586   18.530099
Pt   28.565002   20.662464   14.552909
Pt   23.928168   28.297624   18.723216
Pt   28.617220   18.477343   20.524738
Pt   18.284578   19.466094   28.467618
Pt   24.742210   16.084012   22.463270
Pt   28.465394   20.374412   22.624996
Pt   24.256407   21.933755   28.729192
Pt   23.781903   28.074817   26.840175
Pt   26.728738   16.169305   24.495823
Pt   30.568461   18.571723   22.550021
Pt   24.000436   23.959737   30.597146
Pt   24.100008   26.384414   16.653998
Pt   28.104849   26.668628   16.724032
Pt   28.229406   24.559250   18.664599
Pt   31.802583   26.746720   20.883622
Pt   24.543349   20.330688   14.454872
Pt   22.424841   20.024302   20.497148
Pt   19.706610   27.775773   26.770734
Pt   29.765230   28.621918   20.898740
Pt   26.118098   24.257385   24.776558
Pt   30.221418   22.566790   22.711898
Pt   21.776054   27.963095   24.824989
Pt   28.088223   24.335294   26.802182
Pt   30.431917   22.664108   18.621566
Pt   22.316442   19.787601   28.508000
Pt   26.568079   20.435933   16.482828
Pt   15.726488   29.570647   20.715668
Pt   26.385843   22.694240   10.759442
Pt   22.361653   22.209943   14.544251
Pt   30.098792   24.643326   20.762192
Pt   25.955712   28.522410   16.755424
Pt   26.089599   26.458204   18.698358
Pt   30.193597   24.824604   16.800422
Pt   19.539003   31.760447   22.813719
Pt   30.028684   26.781560   18.784728
Pt   20.255805   21.897516   20.527118
Pt   25.946004   26.201959   26.829721
Pt   24.024149   26.209647   20.717073
Pt   22.770082   16.172606   16.294312
Pt   28.321300   22.445251   20.623040
Pt   28.798101   16.498268   18.406968
Pt   20.572406   18.193149   12.374044
Pt   28.017557   26.548585   20.791501
Pt   32.052522   22.657097   24.698289
Pt   30.401463   20.449765   24.693803
Pt   30.588383   16.653858   20.484663
Pt   22.183855   24.196406   16.577923
Pt   29.954050   26.631344   22.887442
Pt   26.352405   22.401346   18.566746
Pt   28.758793   16.392581   22.505842
Pt   32.207845   22.836713   20.786136
Pt   32.018666   24.881466   18.874041
Pt   30.150263   22.432099   26.684372
Pt   31.988229   24.716149   22.800323
Pt   28.263065   22.351366   24.739510
Pt   23.857306   28.165445   22.850915
Pt   30.084764   24.555128   24.830501
Pt   26.605032   18.219767   22.552742
Pt   30.548518   20.592748   20.574097
