309
Generated with con2xyz
Pt   10.684081   17.274565   23.443692
Pt   12.063024   15.004182   22.651747
Pt   11.947068   17.291415   21.017118
Pt   12.832685   16.460337   24.932571
Pt   10.659923   21.904933   20.285857
Pt   11.933010   19.643571   19.414080
Pt   12.024460   22.001497   17.878779
Pt   10.607055   19.595474   21.873874
Pt   12.289934   22.621930   26.289550
Pt   12.861665   18.843507   23.285045
Pt   12.850864   21.200454   21.674625
Pt   11.461439   18.785871   25.667677
Pt   12.353983   20.293066   27.845401
Pt   13.685833   17.993441   27.171882
Pt   13.719474   20.378061   25.531282
Pt   14.586622   19.569803   29.312707
Pt   12.798766   23.602270   20.055585
Pt   11.439939   23.428831   22.497986
Pt   11.378450   21.120727   24.102010
Pt   12.343055   24.916175   24.686862
Pt   13.654746   25.126100   22.289177
Pt   13.710439   22.732371   23.918035
Pt   14.535515   21.950482   27.812659
Pt   14.534074   24.293967   26.208766
Pt   14.570195   26.551480   24.532717
Pt   13.542723   12.754142   21.838944
Pt   15.076742   10.592295   21.029690
Pt   14.922427   12.771998   19.385066
Pt   15.803303   11.940108   23.299514
Pt   13.403969   17.358323   18.586491
Pt   14.893920   15.097722   17.770932
Pt   14.878173   17.425100   16.184491
Pt   13.422210   15.019706   20.210231
Pt   14.288376   16.538006   22.474863
Pt   15.775631   14.277841   21.659624
Pt   15.742321   16.617271   20.003857
Pt   14.303164   14.192091   24.111617
Pt   15.162383   15.709384   26.367672
Pt   16.646001   13.452984   25.552867
Pt   16.631586   15.781061   23.946741
Pt   17.495182   14.984162   27.786613
Pt   13.491421   22.067505   15.488230
Pt   16.381771   17.492980   13.787826
Pt   18.152404   25.288331   15.038840
Pt   13.392614   19.724112   17.003171
Pt   14.265119   21.293742   19.225522
Pt   15.730845   18.972793   18.393451
Pt   15.741632   21.364450   16.819259
Pt   14.273286   18.890537   20.812889
Pt   15.222207   20.449948   23.092103
Pt   16.651074   18.158015   22.284783
Pt   16.642244   20.539384   20.645841
Pt   15.165939   18.052370   24.763505
Pt   16.020401   19.636358   27.013839
Pt   17.492577   17.317016   26.193954
Pt   17.521356   19.708387   24.563863
Pt   16.020010   17.257830   28.604012
Pt   16.904541   18.867558   30.643160
Pt   20.708646   18.197126   29.915887
Pt   18.381020   18.897403   28.406634
Pt   23.098317   19.753403   29.701888
Pt   19.670192   23.089493   14.125893
Pt   14.258378   23.672227   17.640248
Pt   15.132542   25.216406   19.853392
Pt   16.608590   22.945159   19.027460
Pt   16.618263   25.282339   17.434955
Pt   15.148595   22.874891   21.456019
Pt   15.999406   24.386036   23.752697
Pt   17.507492   22.090614   22.925954
Pt   17.465192   24.484708   21.284039
Pt   16.034295   22.029090   25.413970
Pt   16.872758   23.565244   27.644867
Pt   18.364128   21.285446   26.844911
Pt   18.344099   23.640711   25.226453
Pt   16.860617   21.221829   29.239600
Pt   19.192192   20.482862   30.546344
Pt   19.218863   22.816152   29.068996
Pt   17.458565   26.809369   19.667432
Pt   15.967905   26.726297   22.113033
Pt   16.878401   28.129988   24.351116
Pt   18.325896   25.979791   23.566570
Pt   18.289122   28.306610   21.911159
Pt   16.848994   25.899535   26.022989
Pt   19.195583   25.149988   27.462742
Pt   19.187013   27.469732   25.842650
Pt   21.544535   28.955854   25.551448
Pt   16.410826   12.840007   16.958407
Pt   18.815483   12.129782   18.405579
Pt   20.322911   12.156405   15.930968
Pt   16.519610   10.602785   18.627669
Pt   17.324503   12.057542   20.838343
Pt   21.153954   9.121941   21.425476
Pt   18.821606   9.789428   20.013388
Pt   17.367396   9.788629   22.417255
Pt   18.145094   11.185100   24.711707
Pt   20.524987   10.517321   26.047343
Pt   19.676166   11.306013   22.259757
Pt   21.363826   12.021962   28.251748
Pt   17.958160   15.278551   13.037489
Pt   17.971328   12.961920   14.617433
Pt   18.719986   21.428462   12.076498
Pt   16.401319   15.155905   15.353381
Pt   17.236477   16.688996   17.569915
Pt   18.786727   14.422412   16.748608
Pt   18.778300   16.752701   15.154963
Pt   17.249216   14.372590   19.184427
Pt   18.140787   15.895965   21.469188
Pt   19.678207   13.680690   20.656106
Pt   19.650059   15.976096   19.001936
Pt   18.136375   13.536637   23.137621
Pt   18.991875   15.040520   25.385907
Pt   20.526092   12.765250   24.533101
Pt   20.526658   15.143465   22.927897
Pt   18.992872   12.685809   26.942106
Pt   19.815692   14.218121   29.152190
Pt   24.464455   15.118695   30.245880
Pt   21.372439   14.281478   26.757959
Pt   22.215977   15.878409   28.921101
Pt   18.791602   19.130340   13.633570
Pt   17.291784   21.409949   14.458086
Pt   20.213489   19.170341   11.334937
Pt   16.456146   19.856338   12.310343
Pt   17.229394   19.032232   16.002203
Pt   18.132976   20.614386   18.217526
Pt   19.642517   18.325764   17.394128
Pt   19.685408   20.712993   15.798614
Pt   18.128629   18.244207   19.829742
Pt   18.993816   19.783420   22.104149
Pt   20.506061   17.487790   21.277372
Pt   20.497443   19.853584   19.665818
Pt   19.005765   17.410399   23.736494
Pt   19.878629   18.962606   25.970724
Pt   21.382978   16.674429   25.178489
Pt   21.364869   19.030049   23.526395
Pt   19.846592   16.602445   27.617432
Pt   20.749692   15.772192   31.208849
Pt   26.067678   15.213614   27.980495
Pt   22.250485   18.250688   27.446555
Pt   18.389465   16.563861   29.974855
Pt   26.931661   19.126727   28.538172
Pt   22.614568   18.497912   12.582899
Pt   17.263395   23.659550   12.959307
Pt   18.126123   23.008911   16.608399
Pt   20.517865   26.821691   14.984855
Pt   15.749709   23.750346   15.247984
Pt   18.951729   24.543244   18.856121
Pt   20.498734   22.218145   18.062309
Pt   20.488922   24.570556   16.439240
Pt   18.980568   22.157562   20.480536
Pt   19.842183   23.690182   22.738871
Pt   21.360969   21.399728   21.918124
Pt   21.348764   23.746544   20.286360
Pt   19.856176   21.337174   24.367012
Pt   20.699138   22.883006   26.655173
Pt   22.222021   20.577810   25.769683
Pt   22.220810   22.936495   24.178432
Pt   20.734123   20.503138   28.252198
Pt   23.875983   23.615812   30.092189
Pt   25.392399   21.377040   29.363810
Pt   23.027547   17.313135   31.083738
Pt   21.571600   22.045746   30.357516
Pt   21.313001   28.296661   17.132437
Pt   18.955262   26.869754   17.254827
Pt   19.812748   28.354823   19.504931
Pt   21.340404   26.110422   18.677127
Pt   19.201608   29.614349   24.156513
Pt   19.815211   26.068951   21.087911
Pt   20.699879   27.507562   23.355269
Pt   22.192300   25.250810   22.515901
Pt   22.188010   27.706893   20.870705
Pt   20.682866   25.209337   25.041070
Pt   21.538943   26.739241   27.261425
Pt   23.078772   24.464633   26.456912
Pt   23.046458   26.764561   24.795239
Pt   21.553544   24.411026   28.875053
Pt   26.805175   28.295251   22.184429
Pt   20.619761   29.739029   21.818231
Pt   23.024374   29.101085   23.160760
Pt   23.848751   28.174725   26.937796
Pt   23.888556   25.942131   28.579750
Pt   18.007240   10.730592   16.255938
Pt   20.308464   9.934679   17.633237
Pt   22.625574   9.264004   19.048962
Pt   21.165546   11.382460   19.830542
Pt   22.664884   11.414683   17.351956
Pt   19.694646   9.110912   23.813006
Pt   22.055106   10.496586   23.690958
Pt   23.539384   10.574918   21.274787
Pt   17.959586   17.611949   11.558485
Pt   20.304852   14.479611   14.325253
Pt   21.167851   16.018555   16.530541
Pt   22.663629   13.754111   15.725610
Pt   22.654465   16.100778   14.124029
Pt   21.186553   13.689634   18.148999
Pt   22.034959   15.215410   20.456268
Pt   23.529665   12.913632   19.629773
Pt   23.524733   15.259045   17.967259
Pt   22.069572   12.844866   22.110710
Pt   22.916428   14.352057   24.360745
Pt   24.406823   12.087232   23.527584
Pt   24.406305   14.417689   21.918894
Pt   22.899461   11.999431   25.923818
Pt   22.187710   13.577075   30.373745
Pt   25.260322   13.619160   25.762029
Pt   15.010108   22.096621   13.179105
Pt   21.164840   20.813342   13.300675
Pt   20.311297   16.815163   12.742538
Pt   24.958457   20.073342   12.555231
Pt   21.165591   18.387672   14.940946
Pt   22.013098   19.926581   17.239729
Pt   23.514113   17.612483   16.356795
Pt   23.478868   20.014186   14.789472
Pt   22.015508   17.560044   18.825615
Pt   22.874569   19.103236   21.091678
Pt   24.376658   16.811933   20.273885
Pt   24.372864   19.180304   18.646516
Pt   22.883917   16.733275   22.723159
Pt   23.724849   18.288753   24.963666
Pt   25.257478   15.954617   24.166573
Pt   25.235791   18.356543   22.541852
Pt   23.773163   15.912616   26.592648
Pt   29.828224   16.892904   25.351330
Pt   28.336455   16.860488   27.674383
Pt   31.263547   16.965269   22.952111
Pt   24.662305   17.502822   28.889678
Pt   14.879386   19.773431   14.612252
Pt   22.034154   24.638338   14.124836
Pt   23.526963   22.362140   13.297894
Pt   22.007758   22.311906   15.595820
Pt   22.888887   23.853998   17.829731
Pt   24.384680   21.583610   17.010654
Pt   24.381409   23.932640   15.422628
Pt   22.878507   21.475266   19.472860
Pt   23.732021   23.005997   21.726478
Pt   25.232592   20.725734   20.911138
Pt   25.241492   23.120678   19.260901
Pt   23.740299   20.653768   23.350809
Pt   24.622416   22.195482   25.631233
Pt   26.118436   19.925994   24.820652
Pt   26.120156   22.276791   23.199499
Pt   24.591752   19.827894   27.246742
Pt   25.458309   23.728034   27.857900
Pt   26.077616   17.546870   26.406446
Pt   26.955882   21.460529   27.053836
Pt   22.884084   26.205732   16.257963
Pt   23.700682   27.687855   18.506694
Pt   25.226074   25.457288   17.661348
Pt   23.723223   25.386161   20.070597
Pt   24.525993   26.843966   22.360203
Pt   26.088410   24.628480   21.547247
Pt   26.075339   26.958496   19.892365
Pt   24.611391   24.522846   24.017313
Pt   25.444288   26.058377   26.244444
Pt   26.957251   23.792618   25.441328
Pt   26.933219   26.122330   23.829166
Pt   23.074242   22.093789   28.032859
Pt   24.569585   29.059066   20.799519
Pt   28.332779   26.136541   21.375634
Pt   25.330287   28.299692   24.567333
Pt   24.953526   10.746146   18.847312
Pt   24.985707   15.338561   15.544097
Pt   24.994890   12.985550   17.171045
Pt   25.851051   14.499771   19.451015
Pt   27.263382   12.324834   18.670797
Pt   27.298658   14.573781   16.993927
Pt   25.869123   12.148498   21.089075
Pt   26.730666   13.675208   23.350656
Pt   28.174718   13.738360   20.918373
Pt   29.556872   18.586938   15.310666
Pt   24.970811   17.705448   13.938341
Pt   25.837644   19.265883   16.181984
Pt   27.293056   16.956451   15.364191
Pt   31.763324   17.855926   16.803365
Pt   25.849224   16.862364   17.787993
Pt   26.702666   18.434147   20.099817
Pt   28.148683   16.101408   19.279779
Pt   28.142822   18.523058   17.620753
Pt   26.732132   16.023229   21.744613
Pt   27.584780   17.605776   24.007412
Pt   30.464270   15.352161   20.770788
Pt   29.031396   17.680015   21.593638
Pt   29.042591   15.292395   23.192829
Pt   27.580567   15.224528   25.601829
Pt   32.596064   17.063911   20.536057
Pt   27.266905   19.327643   13.880539
Pt   25.866760   21.653759   14.603600
Pt   28.172419   20.902675   16.019729
Pt   26.719145   20.840549   18.440909
Pt   27.573663   22.367104   20.738736
Pt   29.025428   20.100264   19.934756
Pt   26.715427   23.191165   16.848376
Pt   27.599547   19.999455   22.396443
Pt   28.444198   21.537677   24.630592
Pt   28.459323   19.188057   26.229075
Pt   29.905180   21.623584   22.206201
Pt   23.761924   13.524844   28.125686
Pt   27.574045   24.709824   19.097797
Pt   29.807705   23.892322   20.568477
Pt   31.254323   21.632278   19.764398
Pt   28.437833   23.881216   23.009986
Pt   29.553926   13.920564   18.501496
Pt   29.915036   19.247092   23.829108
Pt   29.580364   16.193462   16.813052
Pt   30.382259   17.782373   19.138919
Pt   31.759685   15.574968   18.362817
Pt   31.345499   19.342454   21.418562
Pt   30.463815   20.179649   17.467939
Pt   29.036049   22.453656   18.289428
Pt   32.595932   19.346283   18.977715
