309
Generated with con2xyz
Pt   11.286141   16.239342   21.491654
Pt   13.111962   14.149561   21.521301
Pt   12.963791   15.931711   19.353626
Pt   13.216564   16.216285   23.426684
Pt   11.158041   19.920059   17.279823
Pt   12.893460   17.799347   17.215439
Pt   12.907750   19.705413   15.145569
Pt   11.157714   18.077059   19.386622
Pt   11.537972   22.319689   23.054776
Pt   13.201677   18.113762   21.244552
Pt   13.140841   19.984644   19.093102
Pt   11.402667   18.352437   23.327171
Pt   11.649697   20.471108   25.146080
Pt   13.396296   18.364660   25.280170
Pt   13.391821   20.266977   23.111163
Pt   13.657131   20.541198   27.049454
Pt   13.031995   21.884799   16.912039
Pt   11.291497   22.041347   19.099575
Pt   11.273253   20.202533   21.221774
Pt   11.548405   24.143979   20.935755
Pt   13.225611   24.030990   18.773735
Pt   13.335075   22.135425   20.961311
Pt   13.542689   22.453568   25.002538
Pt   13.490488   24.315752   22.862472
Pt   13.498513   26.088672   20.677995
Pt   15.040126   12.093747   21.544659
Pt   17.006046   10.136559   21.562508
Pt   16.834305   11.803515   19.400061
Pt   17.089729   12.087685   23.473813
Pt   14.822599   15.701613   17.225895
Pt   16.756579   13.644951   17.245038
Pt   16.691621   15.488858   15.099183
Pt   14.886536   13.854817   19.384753
Pt   15.080154   15.995805   21.271851
Pt   17.015953   13.932485   21.295445
Pt   16.941897   15.772784   19.102113
Pt   15.137422   14.136942   23.441770
Pt   15.324372   16.268950   25.312305
Pt   17.259548   14.206310   25.335816
Pt   17.197738   16.062868   23.202961
Pt   17.439759   16.331757   27.184812
Pt   14.776309   19.480987   13.121946
Pt   16.634634   17.393788   13.083254
Pt   18.818448   23.407568   12.421025
Pt   14.743490   17.574609   15.095587
Pt   14.952192   19.766448   16.922371
Pt   16.877141   17.635333   16.944255
Pt   16.847838   19.554351   14.820871
Pt   15.025580   17.850271   19.071289
Pt   15.292727   20.050640   20.983623
Pt   17.171728   17.948985   21.008747
Pt   17.102962   19.834961   18.826097
Pt   15.284253   18.141840   23.187083
Pt   15.466747   20.340113   25.040878
Pt   17.392806   18.213938   25.069240
Pt   17.373478   20.124455   22.903397
Pt   15.496725   18.421104   27.155911
Pt   15.770831   20.577782   28.825902
Pt   21.892649   20.531952   30.438186
Pt   17.613968   20.404022   26.889649
Pt   19.975628   22.571335   30.353290
Pt   22.689800   21.071689   10.451849
Pt   14.890235   21.664209   14.778932
Pt   15.078074   23.823848   16.630234
Pt   17.005762   21.747844   16.648588
Pt   16.939003   23.596253   14.507624
Pt   15.155658   21.964331   18.776618
Pt   15.342774   24.105913   20.696569
Pt   17.300881   22.009938   20.715198
Pt   17.194293   23.897831   18.514289
Pt   15.426292   22.252674   22.902741
Pt   15.612402   24.389223   24.759048
Pt   17.547682   22.316024   24.793427
Pt   17.464117   24.182460   22.629519
Pt   15.658297   22.516462   26.885904
Pt   17.803678   22.545719   28.714928
Pt   17.749153   24.438146   26.640077
Pt   17.127437   25.735436   16.361612
Pt   15.266642   25.956999   18.514126
Pt   15.537018   27.993866   20.411344
Pt   17.395460   26.023564   20.428885
Pt   17.325513   27.861088   18.238838
Pt   15.533532   26.241108   22.592616
Pt   17.660938   26.301927   24.491149
Pt   17.592957   28.148939   22.326109
Pt   17.607876   29.807823   20.143739
Pt   18.715077   11.584695   17.282833
Pt   20.710530   9.703208   17.402285
Pt   22.802435   11.437623   17.035846
Pt   18.849949   9.859397   19.479436
Pt   19.006775   11.920505   21.313877
Pt   23.066382   10.001143   23.192907
Pt   20.890872   11.707772   19.184471
Pt   19.101211   10.137268   23.423392
Pt   19.227156   12.149656   25.350515
Pt   21.215074   10.267287   25.262289
Pt   21.146705   11.990886   23.203197
Pt   21.401015   12.290138   27.141268
Pt   18.596369   15.289349   13.037380
Pt   20.565678   13.255185   13.132092
Pt   20.575302   15.089107   11.156537
Pt   18.648137   13.420335   15.133026
Pt   18.827707   15.561425   16.958934
Pt   20.817387   13.505005   16.988089
Pt   20.749294   15.363218   14.832430
Pt   18.890271   13.730231   19.116684
Pt   19.109392   15.885266   21.033135
Pt   21.083403   13.876212   21.050049
Pt   21.012358   15.668033   18.868129
Pt   19.151433   14.020307   23.231977
Pt   19.336268   16.140090   25.089345
Pt   21.338761   14.083192   25.104474
Pt   21.280839   15.969703   22.951418
Pt   19.403380   14.261713   27.202169
Pt   19.579804   16.403059   28.932748
Pt   21.568454   14.422219   28.893091
Pt   21.518275   16.239872   26.924707
Pt   19.686503   20.404193   28.831055
Pt   20.613719   17.272592   12.696025
Pt   18.654523   19.314548   12.628725
Pt   22.533236   17.069340   10.756868
Pt   20.670565   19.207119   10.657098
Pt   18.764115   17.441179   14.827526
Pt   18.982990   19.623514   16.718978
Pt   20.944535   17.521830   16.725921
Pt   20.837702   19.392267   14.595586
Pt   19.044506   17.734871   18.857227
Pt   19.242566   19.906709   20.733588
Pt   21.206155   17.815274   20.757837
Pt   21.141416   19.693628   18.591989
Pt   19.307626   18.029939   22.915977
Pt   19.523507   20.198649   24.778822
Pt   21.474801   18.122758   24.800190
Pt   21.398524   19.978185   22.620294
Pt   19.547623   18.304624   26.926664
Pt   21.928036   22.499736   28.540548
Pt   21.642096   18.321041   28.850613
Pt   21.662701   20.270370   26.748141
Pt   17.629409   18.480696   28.911479
Pt   25.897750   22.319366   28.118936
Pt   24.574187   18.994941   10.535908
Pt   20.811687   21.281094   12.491484
Pt   18.880495   21.510557   14.523788
Pt   20.939412   25.263103   12.241265
Pt   16.791572   21.413206   12.698992
Pt   19.073805   23.675850   16.368549
Pt   21.067015   21.571439   16.421648
Pt   20.998799   23.469827   14.269815
Pt   19.172335   21.793392   18.561703
Pt   19.360358   23.933644   20.446644
Pt   21.332873   21.858521   20.460610
Pt   21.260306   23.714718   18.278782
Pt   19.435821   22.074073   22.618287
Pt   19.605609   24.236760   24.524398
Pt   21.586524   22.122149   24.508893
Pt   21.524360   23.998929   22.360609
Pt   19.713492   22.347059   26.709696
Pt   21.980357   26.384500   28.015067
Pt   23.957618   24.400319   28.088995
Pt   21.781011   24.297366   26.346427
Pt   19.904514   24.507417   28.441948
Pt   21.120378   27.379431   14.072316
Pt   19.019388   25.541822   14.251182
Pt   19.199344   27.658248   16.109124
Pt   21.186578   25.600930   16.114885
Pt   21.301053   29.404975   15.952903
Pt   19.258915   25.796748   18.239438
Pt   19.496133   27.892702   20.156878
Pt   21.451099   25.801485   20.177778
Pt   21.374513   27.686968   18.020023
Pt   19.529438   26.084807   22.366576
Pt   19.726079   28.233499   24.194685
Pt   21.712226   26.176328   24.225259
Pt   21.635717   27.974493   22.034987
Pt   19.803646   26.389722   26.344600
Pt   25.508210   29.553888   19.634350
Pt   19.447488   29.670448   18.036757
Pt   21.557906   29.825496   19.879981
Pt   19.703651   29.955064   21.987941
Pt   21.811837   29.977095   23.819041
Pt   20.637522   11.434184   15.249747
Pt   22.816031   9.719182   19.243866
Pt   24.911482   9.860792   21.097222
Pt   23.027684   11.780839   21.075351
Pt   24.934753   11.514281   18.915092
Pt   20.956848   9.855709   21.339269
Pt   23.324183   12.024322   25.119706
Pt   25.191859   11.812416   23.001938
Pt   22.693363   15.135684   12.773698
Pt   22.729865   13.270248   14.892103
Pt   22.929518   15.416124   16.708276
Pt   24.878950   13.353397   16.749447
Pt   24.818198   15.204739   14.616961
Pt   23.005228   13.584546   18.866098
Pt   23.178044   15.748781   20.776235
Pt   25.129181   13.647995   20.809238
Pt   25.074973   15.488654   18.600213
Pt   23.263886   13.891837   22.992252
Pt   23.469239   16.016908   24.875381
Pt   25.368703   13.952992   24.835340
Pt   25.327967   15.793888   22.716039
Pt   23.472352   14.153338   26.954605
Pt   23.817002   18.463178   30.389908
Pt   23.622173   16.320314   28.757256
Pt   20.772826   23.118972   10.505670
Pt   22.756529   19.191028   12.500921
Pt   24.741187   17.077005   12.476839
Pt   26.725051   19.059816   12.285610
Pt   22.845318   17.280775   14.574862
Pt   23.028947   19.475389   16.442523
Pt   25.001662   17.352876   16.439316
Pt   24.931746   19.259033   14.307091
Pt   23.105975   17.598578   18.600677
Pt   23.295085   19.765143   20.484080
Pt   25.245230   17.677667   20.504948
Pt   25.176020   19.550717   18.328161
Pt   23.370633   17.885432   22.670820
Pt   23.536763   20.044247   24.528548
Pt   25.509969   17.922321   24.607573
Pt   25.432029   19.835327   22.399777
Pt   23.602462   18.192683   26.745557
Pt   29.610885   19.975478   26.083790
Pt   27.736031   20.195005   28.101416
Pt   31.432328   19.765886   23.971251
Pt   23.875844   20.410498   28.563850
Pt   18.765001   21.257817   10.718543
Pt   22.928328   23.259475   12.176077
Pt   24.866447   21.167006   12.183270
Pt   22.999425   21.389864   14.297053
Pt   23.182855   23.539344   16.122154
Pt   25.136313   21.456025   16.144945
Pt   25.066027   23.328112   14.019644
Pt   23.230280   21.643202   18.303543
Pt   23.427938   23.785593   20.189184
Pt   25.370531   21.713920   20.212270
Pt   25.326017   23.609661   18.006635
Pt   23.490985   21.930811   22.367303
Pt   23.708797   24.114996   24.244128
Pt   25.654759   22.042594   24.263977
Pt   25.591028   23.903884   22.106054
Pt   23.752075   22.233936   26.379302
Pt   23.897611   26.275700   26.059260
Pt   25.675117   20.129807   26.390297
Pt   25.854895   24.201689   26.089513
Pt   23.100110   25.401208   14.000762
Pt   23.288283   27.521644   15.854566
Pt   25.248515   25.462041   15.860711
Pt   23.375019   25.658006   17.984249
Pt   23.514843   27.765605   19.898676
Pt   25.503910   25.753284   19.910993
Pt   25.421540   27.595935   17.725644
Pt   23.639798   25.951426   22.094977
Pt   23.813338   28.107809   23.919774
Pt   25.778839   26.047021   23.947456
Pt   25.688212   27.891744   21.798817
Pt   21.892129   28.241767   25.972848
Pt   23.410274   29.544487   17.784468
Pt   27.474147   27.596859   19.645657
Pt   23.667652   29.831754   21.727271
Pt   26.985447   11.675593   20.838388
Pt   26.933008   15.274557   16.478124
Pt   26.995325   13.417362   18.651019
Pt   27.177157   15.563352   20.540744
Pt   29.022107   13.581350   20.571004
Pt   29.026711   15.333641   18.380177
Pt   27.248102   13.718649   22.738475
Pt   27.429617   15.877410   24.567314
Pt   29.282874   15.630331   22.465256
Pt   30.914549   19.201394   16.016187
Pt   26.869481   17.152118   14.324835
Pt   27.050187   19.332351   16.170318
Pt   28.964856   17.219694   16.192341
Pt   32.898804   19.278406   17.936403
Pt   27.124287   17.422097   18.328987
Pt   27.291076   19.625709   20.238606
Pt   29.200256   17.489582   20.272962
Pt   29.137172   19.406341   18.051340
Pt   27.374864   17.722683   22.453683
Pt   27.563737   19.910643   24.301403
Pt   31.300676   17.568800   22.206582
Pt   29.401333   19.698836   22.180676
Pt   29.478106   17.794073   24.340692
Pt   27.625684   18.041321   26.425831
Pt   33.155179   19.557560   21.823757
Pt   28.834064   19.130412   14.141629
Pt   26.992334   21.230706   14.027432
Pt   29.089253   21.305899   15.892128
Pt   27.252813   21.532695   18.028446
Pt   27.433687   23.691884   19.933256
Pt   29.334293   21.620413   19.961070
Pt   27.182217   23.398194   15.880658
Pt   27.516014   21.823859   22.136674
Pt   27.711547   23.981969   23.972683
Pt   27.786688   22.108983   26.123506
Pt   29.546600   23.777425   21.842628
Pt   25.723523   18.285981   28.490067
Pt   27.367867   25.548019   17.750858
Pt   29.397761   25.542125   19.669189
Pt   31.294555   23.473910   19.697356
Pt   27.635312   25.842928   21.812547
Pt   31.041369   15.501927   20.298377
Pt   29.619920   21.885072   24.019561
Pt   31.032069   17.273986   18.089951
Pt   31.148620   19.485528   19.999600
Pt   32.963853   17.467920   20.026580
Pt   31.432313   21.692328   21.894325
Pt   31.163038   21.398489   17.781138
Pt   29.280720   23.485236   17.771996
Pt   33.087194   21.368441   19.734343
