309
Generated with con2xyz
Pt   23.324174   21.101791   11.497624
Pt   21.000748   20.374210   12.862618
Pt   20.978944   20.363147   15.738746
Pt   20.943392   22.795491   22.965511
Pt   23.752045   16.332509   24.416399
Pt   20.907299   20.328379   24.384384
Pt   23.189818   21.019524   28.666778
Pt   20.868255   20.281035   29.962491
Pt   23.367804   23.557460   12.871307
Pt   23.338401   21.112106   14.285293
Pt   23.300388   21.106333   17.183142
Pt   23.276757   21.099887   20.084103
Pt   23.251494   21.087495   22.982699
Pt   23.247444   21.058784   25.881511
Pt   20.888686   20.301979   27.261014
Pt   21.019601   20.380577   10.160667
Pt   21.009032   22.835451   14.283969
Pt   20.954748   20.356636   18.617576
Pt   20.930973   20.346354   21.506709
Pt   20.985505   25.259824   21.517978
Pt   20.925148   22.777869   25.867932
Pt   20.900148   22.712942   28.656984
Pt   18.708945   21.135466   11.466362
Pt   18.652771   21.144792   14.253453
Pt   18.644866   21.127815   17.147396
Pt   18.618529   21.119617   20.044973
Pt   18.594780   23.569405   24.437898
Pt   18.565015   21.088868   25.846203
Pt   18.580428   21.058361   28.632980
Pt   19.567965   18.428934   11.464987
Pt   19.529332   18.386150   14.251418
Pt   19.517654   18.377878   17.154745
Pt   18.051494   16.399464   18.597319
Pt   20.876723   16.304427   24.410724
Pt   17.099383   19.105590   27.241436
Pt   19.437945   18.323779   25.827952
Pt   22.420695   18.406573   11.480270
Pt   22.423646   18.363850   14.265014
Pt   22.387645   18.362415   17.165443
Pt   22.361882   18.353636   20.062466
Pt   22.333067   18.340244   22.964548
Pt   22.324305   18.305741   25.857753
Pt   19.440244   18.340919   28.614072
Pt   25.645766   21.823504   12.959622
Pt   25.655557   21.839626   15.747505
Pt   25.613995   21.843664   18.653530
Pt   25.588784   21.835071   21.554887
Pt   25.588150   21.800599   24.460825
Pt   25.534363   21.752705   27.251102
Pt   25.696389   24.283689   14.322709
Pt   25.689230   26.699306   15.785980
Pt   23.306895   23.564905   18.639600
Pt   23.288009   23.565951   21.550059
Pt   23.292840   23.546447   24.472645
Pt   23.256409   23.495026   27.318982
Pt   21.030315   22.796394   11.492339
Pt   23.380209   25.998769   14.304369
Pt   21.025057   27.819309   17.169812
Pt   20.962895   22.812458   20.070052
Pt   20.959842   25.231198   24.435878
Pt   20.924633   25.159809   27.235749
Pt   18.686991   23.594496   12.838849
Pt   18.655796   23.622306   15.683971
Pt   18.659952   23.591760   18.589769
Pt   18.635905   23.585334   21.511826
Pt   16.264011   24.319532   25.833860
Pt   18.578148   23.533043   27.280673
Pt   16.381424   21.895683   12.885516
Pt   17.168905   19.146018   15.655431
Pt   16.327509   21.904504   18.574123
Pt   16.305202   21.897460   21.485359
Pt   18.598048   21.105949   22.941338
Pt   16.278046   21.849958   27.184977
Pt   17.203993   19.163934   12.821333
Pt   13.405336   17.956556   15.654534
Pt   14.853641   19.920749   17.072675
Pt   14.898520   19.928428   20.013421
Pt   17.102995   19.112236   24.402851
Pt   14.793521   19.908995   25.806861
Pt   18.100501   16.466677   12.891160
Pt   18.067032   16.422549   15.680444
Pt   17.997842   16.367472   21.478039
Pt   19.466121   18.353417   22.933990
Pt   20.896048   16.350475   21.504627
Pt   17.990765   16.392855   27.150822
Pt   20.969213   16.401025   12.823825
Pt   20.958551   16.367631   15.669102
Pt   19.490790   18.363390   20.048851
Pt   23.761085   16.367057   21.514239
Pt   19.393456   14.371199   25.808120
Pt   20.859699   16.320958   27.248519
Pt   23.833842   16.417231   12.923436
Pt   23.831136   16.365861   15.712872
Pt   20.932392   16.361106   18.596156
Pt   23.794554   16.362941   18.612288
Pt   23.718795   16.345014   27.201661
Pt   22.285509   18.317680   28.642292
Pt   24.776947   19.110591   12.865897
Pt   24.764102   19.097412   15.702616
Pt   24.707016   19.102463   18.616895
Pt   24.681229   19.096329   21.554904
Pt   24.690524   19.062190   24.467638
Pt   24.659861   19.039954   27.301565
Pt   27.968494   22.528168   14.427570
Pt   27.977318   22.552000   17.238092
Pt   27.953076   22.555325   20.129788
Pt   27.934421   22.535739   23.010892
Pt   27.880902   22.486877   25.818401
Pt   25.666739   24.316992   17.184504
Pt   23.353881   23.583270   15.718382
Pt   25.680675   26.801777   18.624703
Pt   25.629510   24.288577   23.044493
Pt   25.612946   24.218409   25.917791
Pt   21.041133   25.227991   12.940469
Pt   25.554028   31.299986   21.695942
Pt   23.343862   26.046585   20.084088
Pt   23.338948   26.008970   23.033586
Pt   23.274466   25.945426   25.909456
Pt   16.416359   29.146122   17.112194
Pt   20.988140   22.815863   17.175453
Pt   21.000452   25.285477   18.623757
Pt   20.988977   27.682581   22.990463
Pt   20.926907   27.603895   25.824106
Pt   18.703786   26.039528   14.270957
Pt   18.668696   26.084465   17.159978
Pt   18.672239   26.044155   20.036919
Pt   18.623878   26.019142   23.000640
Pt   18.605769   25.981895   25.860662
Pt   14.015143   25.103774   15.669504
Pt   16.330242   21.914260   15.675122
Pt   16.353141   24.350651   20.029935
Pt   16.291778   24.359008   22.980520
Pt   13.972288   22.633960   25.716160
Pt   16.333802   24.396011   17.110486
Pt   14.001224   22.680372   17.132529
Pt   13.982568   22.681436   20.014963
Pt   14.814804   19.909203   22.956785
Pt   16.266872   21.879721   24.396540
Pt   14.875680   19.936964   14.230785
Pt   12.546136   20.695940   15.666641
Pt   13.960449   22.663649   22.909049
Pt   17.150893   19.121262   21.482518
Pt   17.990625   16.370411   24.349209
Pt   15.730282   17.179613   14.252480
Pt   15.690840   17.159394   17.104229
Pt   19.485629   10.562199   17.171050
Pt   15.699285   17.099795   20.002410
Pt   15.661521   17.136518   22.910599
Pt   16.630782   14.509017   14.331571
Pt   16.703517   10.532988   19.794556
Pt   16.489311   14.364996   22.905914
Pt   20.850541   12.398042   24.396682
Pt   16.598855   14.468673   17.162284
Pt   19.503865   14.439458   14.232424
Pt   19.506435   14.411312   17.083019
Pt   19.428828   14.414507   20.044034
Pt   19.399180   14.355520   22.931511
Pt   22.314345   14.338242   25.818460
Pt   22.382879   14.410974   14.255368
Pt   22.376958   14.353403   17.126305
Pt   20.913171   12.419313   18.579196
Pt   22.317570   14.318251   22.958335
Pt   25.145853   14.361131   25.741552
Pt   25.248712   14.435735   14.374676
Pt   26.676791   12.347507   18.646300
Pt   25.199629   14.330130   20.074220
Pt   23.790942   12.287162   21.515811
Pt   26.582507   12.513246   24.247988
Pt   26.188003   17.113498   14.306130
Pt   26.167192   17.100851   17.152213
Pt   26.085506   17.116150   20.088487
Pt   26.121047   17.090751   23.023881
Pt   26.089102   17.060972   25.865689
Pt   27.100750   19.834576   14.326559
Pt   27.077491   19.819339   17.171749
Pt   26.994521   19.834168   20.107371
Pt   27.032878   19.802237   23.041762
Pt   27.009064   19.785178   25.885513
Pt   30.250018   23.234166   15.954380
Pt   30.361937   23.275221   18.737584
Pt   30.342036   23.270659   21.554997
Pt   30.187468   23.209373   24.336704
Pt   28.014056   24.983980   15.766713
Pt   30.185274   25.630005   17.334373
Pt   30.203151   25.697102   20.153669
Pt   27.945083   24.999062   21.575867
Pt   23.350677   26.032612   17.205424
Pt   27.732877   29.672275   21.665855
Pt   25.602616   29.065109   23.185824
Pt   23.254971   28.382831   24.521380
Pt   21.017298   25.284331   15.750816
Pt   27.996528   27.275974   17.254547
Pt   25.693063   26.775940   21.567999
Pt   23.354751   28.449533   21.570327
Pt   21.029938   27.732516   20.060849
Pt   23.344497   30.818287   20.219014
Pt   21.009564   30.197930   21.596453
Pt   20.943657   30.010509   24.374182
Pt   21.047890   27.622946   14.398985
Pt   18.679971   28.434976   21.512550
Pt   16.387696   29.285145   20.084475
Pt   18.626095   28.426674   24.439841
Pt   14.275641   29.736393   18.531020
Pt   16.326574   26.872928   18.609341
Pt   16.320243   26.805979   21.489473
Pt   16.290925   26.778408   24.400091
Pt   16.346669   24.350533   14.247496
Pt   14.029501   25.135863   18.587659
Pt   14.009953   25.111296   21.464019
Pt   13.958677   25.103932   24.377447
Pt   14.050297   22.651879   14.322258
Pt   11.607749   23.445676   18.595875
Pt   11.588342   23.453274   21.416901
Pt   11.705441   23.402903   24.194746
Pt   11.756258   23.396652   15.812130
Pt   17.174128   19.131056   18.568929
Pt   11.137925   18.759913   22.816070
Pt   12.485940   20.689120   24.341746
Pt   11.184290   18.753886   17.157737
Pt   12.559934   20.691389   18.570004
Pt   13.396017   17.964676   21.433653
Pt   12.539817   20.693964   21.434776
Pt   14.293320   15.219812   15.736744
Pt   13.418147   17.958113   18.566810
Pt   11.980410   16.077107   19.987673
Pt   16.567655   14.480777   25.647653
Pt   15.304818   12.569181   15.775014
Pt   17.920558   12.360646   21.469626
Pt   15.231312   12.433588   18.502797
Pt   15.651054   17.142204   25.783244
Pt   18.075336   12.474629   15.649331
Pt   18.055445   12.483128   18.561788
Pt   19.452613   10.593192   22.866128
Pt   18.025445   12.478701   24.306736
Pt   20.924046   12.418051   15.680694
Pt   22.346476   10.552533   17.187686
Pt   20.849869   12.426955   21.452113
Pt   22.193428   10.557284   22.870793
Pt   23.780120   12.427043   15.672937
Pt   25.229542   14.344141   17.191772
Pt   22.361906   14.369187   20.060518
Pt   23.736724   12.385925   24.331896
Pt   26.662083   12.484924   15.851514
Pt   25.143096   10.642343   17.101199
Pt   28.917545   13.203110   20.094041
Pt   26.660111   12.403458   21.491429
Pt   27.599211   15.128231   15.761130
Pt   27.539476   15.122595   18.659573
Pt   25.170318   14.357910   22.928235
Pt   27.533335   15.102773   24.422681
Pt   28.520897   17.833033   15.786027
Pt   28.479089   17.825293   18.677585
Pt   28.460784   17.821149   21.543237
Pt   30.693231   18.562194   22.957076
Pt   29.422949   20.545293   15.796052
Pt   29.368117   20.538613   18.697105
Pt   29.348721   20.531400   21.559782
Pt   29.356333   20.516501   24.460761
Pt   27.957774   24.954254   24.490165
Pt   30.151821   25.610005   22.973829
Pt   27.961880   27.360066   23.038286
Pt   28.015562   27.457751   20.111426
Pt   27.955525   24.990269   18.705081
Pt   25.640104   26.645713   24.515159
Pt   23.342360   28.537837   18.596041
Pt   25.603152   24.306491   20.110308
Pt   25.644098   29.169592   20.069931
Pt   23.355082   28.292303   15.760570
Pt   21.036567   30.151830   18.824776
Pt   23.300315   30.739097   23.063143
Pt   18.692451   28.384448   15.723583
Pt   18.728028   30.813038   20.200965
Pt   18.661904   30.719968   22.958019
Pt   16.362034   26.791141   15.678206
Pt   18.696650   28.584450   18.582609
Pt   16.385961   29.131107   22.927392
Pt   14.050073   27.500263   17.123480
Pt   13.985663   27.586555   20.068087
Pt   14.060688   27.470448   22.906911
Pt   11.830218   25.785075   17.190189
Pt   11.776397   25.863994   20.008845
Pt   11.813112   25.810948   22.825810
Pt   11.082532   18.724450   19.986046
Pt   10.289483   21.390741   19.992163
Pt   10.344597   21.427761   22.801226
Pt   10.379974   21.421012   17.184051
Pt   12.014363   16.114974   22.813102
Pt   13.341787   17.956548   24.347331
Pt   12.072369   16.106344   17.166146
Pt   14.177135   15.185903   21.447558
Pt   14.227343   15.289914   24.270144
Pt   14.197248   15.117668   18.573076
Pt   16.695417   10.613124   17.099148
Pt   16.505466   14.370896   20.064761
Pt   19.424685   10.468478   20.020037
Pt   22.212371   10.474494   20.054460
Pt   23.795018   12.331966   18.670319
Pt   28.890606   13.247402   17.294600
Pt   27.527663   15.125159   21.524264
Pt   28.849082   13.228001   22.897929
Pt   29.822364   15.878866   17.290148
Pt   29.878002   15.840793   20.111565
Pt   29.786068   15.866689   22.936332
Pt   30.733332   18.577322   17.305926
Pt   30.790640   18.533897   20.130598
Pt   28.454653   17.804883   24.434448
Pt   31.578045   21.233084   17.341382
Pt   31.629600   21.189479   20.147963
Pt   31.535765   21.218556   22.955154
