309
Generated with con2xyz
Pt   11.612553   20.015504   26.076884
Pt   11.426194   14.142206   20.070752
Pt   11.509788   16.841260   19.290789
Pt   12.059216   14.711037   22.747089
Pt   10.468033   21.486732   19.933051
Pt   11.707511   19.572949   18.551383
Pt   11.989603   22.340688   17.875669
Pt   10.058933   16.097661   21.483898
Pt   10.833294   19.378733   23.468478
Pt   12.286637   17.509567   21.998108
Pt   12.414731   20.313858   21.336125
Pt   10.698445   16.708725   24.137666
Pt   13.555256   16.089026   28.030020
Pt   12.775259   15.357438   25.422557
Pt   11.467196   17.359358   26.751169
Pt   15.720552   14.820821   29.245593
Pt   12.647661   23.037789   20.525241
Pt   13.080656   20.999487   23.998579
Pt   10.190118   18.816815   20.774007
Pt   14.193616   24.260499   25.831856
Pt   13.434541   23.687567   23.206101
Pt   13.011593   18.161393   24.678975
Pt   13.689868   18.841420   27.425754
Pt   13.874649   21.571390   26.627956
Pt   16.483842   25.702045   26.378243
Pt   15.186214   13.587359   19.136240
Pt   14.433892   10.364767   17.269239
Pt   12.977145   14.894132   17.871029
Pt   18.762789   7.795759   19.737251
Pt   13.170493   17.631539   17.128513
Pt   14.645238   15.704475   15.709368
Pt   14.831416   18.434859   14.973718
Pt   12.899522   12.213883   18.651050
Pt   13.704889   15.528842   20.561821
Pt   16.728172   11.683173   17.720538
Pt   15.353267   16.346801   18.375733
Pt   13.521473   12.773716   21.317211
Pt   14.251253   13.403328   23.998473
Pt   15.723815   11.473110   22.578502
Pt   15.902261   14.201168   21.841911
Pt   16.455324   12.112684   25.233903
Pt   13.667874   23.054765   15.807301
Pt   18.076930   17.269192   11.577383
Pt   18.349014   26.084476   16.790435
Pt   13.353605   20.386146   16.405437
Pt   14.058773   21.077437   19.102863
Pt   15.540929   19.094722   17.640533
Pt   15.777010   21.855903   16.947227
Pt   13.878318   18.316456   19.809667
Pt   14.653652   18.999581   22.533717
Pt   16.106648   17.001018   21.095071
Pt   16.300506   19.767186   20.348209
Pt   14.442934   16.145229   23.277008
Pt   15.152440   16.848744   25.975774
Pt   16.630833   14.850197   24.533585
Pt   16.838893   17.649720   23.799063
Pt   14.947383   14.079310   26.666456
Pt   17.341000   15.563255   27.203912
Pt   22.866007   19.179495   30.724052
Pt   17.133069   12.790000   27.869393
Pt   22.065951   15.720776   29.024890
Pt   19.885571   24.061430   15.372064
Pt   14.284435   23.850795   18.371205
Pt   14.980982   24.514730   21.049847
Pt   16.460562   22.564815   19.626397
Pt   16.658368   25.292213   18.893663
Pt   14.797351   21.758532   21.793666
Pt   15.527673   22.368111   24.482478
Pt   17.039562   20.418166   23.049593
Pt   17.176429   23.223620   22.300099
Pt   15.332563   19.643126   25.260437
Pt   16.053035   20.293666   27.933894
Pt   17.539191   18.329322   26.524090
Pt   17.721584   21.077276   25.791569
Pt   15.861966   17.547695   28.655610
Pt   18.056168   16.290048   29.875092
Pt   18.267452   18.998352   29.175759
Pt   17.368577   25.951488   21.558179
Pt   15.710407   25.167068   23.728974
Pt   18.858194   27.044155   26.834531
Pt   17.894965   23.834784   25.011599
Pt   18.091083   26.586672   24.242620
Pt   16.229473   23.022183   27.195313
Pt   18.432892   21.722990   28.455807
Pt   18.619375   24.454164   27.706628
Pt   21.028847   25.820013   28.097696
Pt   14.468083   12.974224   16.442218
Pt   18.411158   12.469675   15.546897
Pt   20.107916   13.277914   13.333279
Pt   16.039517   11.116780   15.094552
Pt   19.873968   8.100779   15.011007
Pt   22.174160   9.329015   15.415981
Pt   16.568390   9.023539   18.494946
Pt   15.009826   10.843407   19.905180
Pt   17.220062   9.543764   21.154338
Pt   19.468226   8.337687   22.345298
Pt   18.943875   10.362669   18.957843
Pt   20.185319   9.030622   24.919099
Pt   20.287249   16.005486   12.605892
Pt   17.892996   14.588048   12.212800
Pt   19.245944   23.430296   12.743400
Pt   16.146966   13.775828   14.281759
Pt   17.037152   17.145058   16.205983
Pt   18.578005   15.198912   14.767102
Pt   18.772679   17.952084   14.075271
Pt   16.857837   14.416571   16.940972
Pt   17.604747   15.040358   19.657232
Pt   19.144074   13.120601   18.233115
Pt   19.305870   15.840362   17.468059
Pt   17.402914   12.265246   20.422200
Pt   18.117764   12.902620   23.086911
Pt   19.652124   10.953545   21.646433
Pt   19.843041   13.725306   20.912702
Pt   17.945166   10.177863   23.817188
Pt   18.707242   10.873377   26.448283
Pt   20.223274   14.978147   30.919152
Pt   20.371800   11.637063   24.312137
Pt   21.139110   12.212638   27.015074
Pt   18.900487   20.702462   13.280180
Pt   20.103514   26.686901   14.758338
Pt   21.380674   22.108149   13.934899
Pt   16.551745   19.181475   12.922848
Pt   17.250344   19.900220   15.489804
Pt   17.989408   20.549575   18.204623
Pt   19.497666   18.582042   16.763888
Pt   19.638465   21.319651   16.019025
Pt   17.788833   17.790129   18.914470
Pt   18.519568   18.454609   21.608130
Pt   20.025525   16.484997   20.163036
Pt   20.221682   19.254210   19.442731
Pt   18.323359   15.686659   22.349165
Pt   19.059666   16.341759   25.047454
Pt   20.555258   14.398731   23.585757
Pt   20.739711   17.154525   22.853214
Pt   18.863379   13.555065   25.755143
Pt   19.582718   14.306946   28.358727
Pt   24.941120   11.853548   26.012692
Pt   21.321448   15.026680   26.295367
Pt   19.351898   11.678474   29.031374
Pt   25.843236   15.252492   27.961386
Pt   23.045481   22.841636   11.933146
Pt   17.406308   22.652620   14.715083
Pt   18.144232   23.334009   17.455717
Pt   20.725261   21.469185   11.391417
Pt   17.784588   25.313821   14.216842
Pt   18.860412   24.016620   20.128508
Pt   20.399453   22.018876   18.696261
Pt   20.594536   24.795661   18.002783
Pt   18.705234   21.233735   20.874424
Pt   19.411648   21.869778   23.570523
Pt   20.935313   19.919269   22.133681
Pt   21.113208   22.674586   21.373592
Pt   19.236339   19.108829   24.318726
Pt   19.935538   19.779232   27.036416
Pt   21.460066   17.803075   25.543680
Pt   21.651312   20.550175   24.834843
Pt   19.779164   17.035769   27.750453
Pt   23.041305   21.861351   30.082131
Pt   24.398123   17.251596   29.388653
Pt   21.667669   13.058748   29.576564
Pt   20.504391   17.686281   30.347095
Pt   20.782692   27.414110   17.335924
Pt   19.065849   26.747792   19.434183
Pt   19.764103   27.382801   22.094456
Pt   21.298653   25.446480   20.657202
Pt   20.515120   27.885420   24.744485
Pt   19.561135   24.648221   22.802380
Pt   20.314120   25.226345   25.490652
Pt   21.815667   23.260276   24.049835
Pt   24.350778   27.390325   23.850578
Pt   20.106440   22.503900   26.298968
Pt   20.825224   23.162481   28.953364
Pt   22.367197   21.214243   27.537537
Pt   24.212026   24.729296   24.586364
Pt   20.653525   20.430347   29.690522
Pt   22.161559   28.607727   22.600284
Pt   21.999781   26.026310   23.336122
Pt   22.705211   26.670142   26.010861
Pt   22.527554   23.930382   26.742609
Pt   23.191841   24.507157   29.283381
Pt   17.719087   11.953412   13.000231
Pt   19.910361   10.597139   14.111269
Pt   20.618833   11.112533   16.762117
Pt   18.173544   9.708869   16.277194
Pt   22.327478   11.961518   14.580426
Pt   20.445637   8.448710   17.577937
Pt   21.178747   9.019366   20.215239
Pt   22.864478   9.818090   18.048698
Pt   16.329238   16.490697   13.548559
Pt   22.677375   17.421618   13.117723
Pt   21.014561   16.619438   15.263942
Pt   22.506658   14.689300   13.837068
Pt   22.895038   20.139084   12.421527
Pt   20.833805   13.880382   15.995823
Pt   21.544619   14.529579   18.723496
Pt   23.025459   12.547966   17.273822
Pt   23.226047   15.313715   16.503179
Pt   21.373926   11.740406   19.473496
Pt   22.085753   12.382085   22.153260
Pt   23.578055   10.446576   20.719399
Pt   23.765235   13.170978   19.985135
Pt   21.895676   9.650201   22.863651
Pt   17.908141   13.592555   30.380846
Pt   24.284848   11.096975   23.400345
Pt   15.993822   24.572565   16.224255
Pt   21.578930   24.806396   13.294609
Pt   20.444331   18.751869   11.950629
Pt   25.236363   21.590750   13.058370
Pt   21.180593   19.372082   14.548633
Pt   21.907442   20.053173   17.259418
Pt   23.409139   18.072425   15.774023
Pt   23.618865   20.841681   15.097415
Pt   21.728559   17.285655   17.984548
Pt   22.444385   17.947816   20.688061
Pt   23.939763   15.976284   19.243249
Pt   24.124893   18.750801   18.508243
Pt   22.256272   15.171918   21.413332
Pt   22.959867   15.854659   24.093634
Pt   24.473563   13.827012   22.675518
Pt   24.659524   16.635459   21.948533
Pt   22.774661   13.068681   24.853573
Pt   28.955512   14.079687   24.417957
Pt   27.265069   13.343492   26.484989
Pt   30.584621   14.871506   22.285662
Pt   23.498610   13.721981   27.567688
Pt   15.061270   21.130320   14.351182
Pt   22.333146   25.566575   15.872729
Pt   23.828275   23.613556   14.434327
Pt   22.147488   22.831525   16.570603
Pt   22.848509   23.507542   19.217213
Pt   24.351830   21.546168   17.781665
Pt   24.543089   24.287230   17.089684
Pt   22.635280   20.721692   19.947326
Pt   23.355857   21.359282   22.640722
Pt   24.850301   19.408882   21.211886
Pt   25.064287   22.206392   20.462380
Pt   23.169315   18.611061   23.388490
Pt   23.912193   19.260427   26.107850
Pt   25.399867   17.312411   24.678302
Pt   25.597326   20.064521   23.945664
Pt   23.685038   16.496882   26.823628
Pt   24.618161   19.944277   28.760367
Pt   25.142565   14.544084   25.370951
Pt   26.107535   17.967608   27.343169
Pt   23.021780   26.237191   18.518609
Pt   21.478506   28.061991   19.973058
Pt   25.241615   24.940989   19.740698
Pt   23.556204   24.138071   21.877477
Pt   26.503752   26.059678   25.049095
Pt   25.762523   22.828201   23.179061
Pt   25.932241   25.578949   22.417457
Pt   24.093355   21.988319   25.368028
Pt   24.785720   22.665603   28.026802
Pt   26.298349   20.711581   26.612290
Pt   26.464125   23.451683   25.878926
Pt   22.178847   18.468731   28.231530
Pt   23.727041   26.872455   21.173639
Pt   28.041696   24.206331   23.676036
Pt   24.868442   25.335358   27.202055
Pt   24.504986   10.726194   15.918537
Pt   24.882039   16.120934   14.352218
Pt   24.705477   13.373809   15.089753
Pt   25.405928   13.988833   17.793585
Pt   26.846199   12.140016   16.431943
Pt   27.061735   14.805931   15.613066
Pt   25.241161   11.237171   18.552837
Pt   25.948843   11.878762   21.242502
Pt   27.593692   12.672318   19.079216
Pt   29.556193   19.022124   15.529922
Pt   25.090423   18.864533   13.643959
Pt   25.801460   19.553779   16.329794
Pt   27.258080   17.576390   14.880944
Pt   31.615433   17.727381   16.841801
Pt   25.602982   16.766408   17.025004
Pt   26.314467   17.440398   19.779083
Pt   27.756673   15.436278   18.327228
Pt   27.959439   18.262271   17.582634
Pt   26.141633   14.619168   20.520492
Pt   26.850568   15.313789   23.237447
Pt   29.929837   14.119824   19.637554
Pt   28.489991   16.109803   21.091961
Pt   28.310983   13.332575   21.793676
Pt   26.658666   12.541857   23.930805
Pt   32.117987   15.697153   20.143396
Pt   27.405668   20.307992   14.281211
Pt   26.016796   22.323652   15.638011
Pt   28.179941   21.039158   16.875240
Pt   26.539192   20.251603   19.033027
Pt   27.243891   20.888883   21.760920
Pt   28.691252   18.940208   20.345155
Pt   26.728821   22.998525   18.318122
Pt   27.068098   18.106681   22.524597
Pt   27.775593   18.768986   25.198540
Pt   27.578592   16.010491   25.921414
Pt   29.422714   19.581517   23.051090
Pt   22.579709   10.374386   25.451680
Pt   27.434534   23.646960   21.007538
Pt   29.517880   22.272850   22.265143
Pt   30.962304   20.328321   20.853087
Pt   27.963082   21.524920   24.461236
Pt   29.179288   13.575837   16.964653
Pt   29.228131   16.795775   23.782473
Pt   29.401256   16.266507   16.141956
Pt   30.044095   16.947446   18.915007
Pt   31.433138   15.061528   17.542567
Pt   30.854435   17.613848   21.648308
Pt   30.323184   19.760049   18.154165
Pt   28.897507   21.708068   19.590328
Pt   32.301026   18.363912   19.442759
