309
Generated with con2xyz
Pt   16.418138   16.162127   18.044313
Pt   18.617408   14.774055   18.998053
Pt   18.925223   16.818267   17.057282
Pt   17.106563   16.405159   20.732372
Pt   15.662451   22.333368   16.041069
Pt   19.289091   18.982392   15.217571
Pt   14.314323   17.646440   17.233192
Pt   16.731237   18.228622   16.169918
Pt   12.919323   19.336438   18.882177
Pt   17.392976   18.595614   18.794404
Pt   17.777022   20.730771   16.815433
Pt   14.886459   17.798548   19.846173
Pt   13.481788   19.689340   21.494041
Pt   15.615636   18.191275   22.491355
Pt   15.931058   20.333109   20.524416
Pt   14.251513   20.010131   24.146884
Pt   18.190173   22.910116   15.067280
Pt   14.269724   23.951835   17.774349
Pt   15.203537   20.128517   17.722029
Pt   16.355577   22.504739   18.679599
Pt   16.715558   24.716625   16.767521
Pt   13.782846   21.816673   19.577339
Pt   14.487377   22.129518   22.284560
Pt   14.847171   24.275363   20.425636
Pt   15.314600   26.370191   18.580034
Pt   20.827130   13.396385   19.975062
Pt   23.060073   12.114480   20.961993
Pt   23.399608   14.033464   19.037915
Pt   21.536676   13.637626   22.691771
Pt   21.504736   17.539244   16.178700
Pt   23.753891   16.139714   17.172740
Pt   24.115412   18.242984   15.331533
Pt   21.152751   15.411585   18.051298
Pt   19.660784   17.151681   19.784670
Pt   21.918927   15.742902   20.786111
Pt   22.285991   17.853589   18.885582
Pt   19.314335   15.014473   21.693471
Pt   17.856235   16.758422   23.429008
Pt   20.103753   15.358209   24.414191
Pt   20.443062   17.459804   22.532233
Pt   18.649378   17.097116   26.113170
Pt   19.736344   21.162433   13.481139
Pt   22.258213   21.845142   12.594930
Pt   31.368553   22.479020   17.232287
Pt   21.868758   19.665341   14.331291
Pt   20.403096   21.444768   16.058589
Pt   22.649820   19.976708   17.030366
Pt   23.000962   22.151418   15.183765
Pt   20.017500   19.277615   17.887428
Pt   18.580466   21.045847   19.632982
Pt   20.830195   19.620236   20.647010
Pt   21.192866   21.768878   18.783052
Pt   18.179532   18.880714   21.534246
Pt   16.724325   20.671609   23.252827
Pt   18.979718   19.211412   24.243581
Pt   19.358622   21.380877   22.363409
Pt   16.393197   18.524104   25.151832
Pt   15.047342   20.335315   26.808946
Pt   17.211418   18.855669   27.826448
Pt   17.532758   21.003450   25.955975
Pt   15.922667   20.682652   29.411120
Pt   23.358647   24.319956   13.347018
Pt   20.754292   23.613164   14.181894
Pt   19.298213   25.369658   15.883087
Pt   21.527048   23.942378   16.877476
Pt   21.891839   26.077100   15.035436
Pt   18.917414   23.218071   17.734474
Pt   17.448028   24.979020   19.505431
Pt   19.712054   23.524425   20.494006
Pt   20.059441   25.684488   18.586651
Pt   17.066924   22.826410   21.399096
Pt   15.620003   24.585868   23.123677
Pt   17.858516   23.161357   24.101393
Pt   18.210248   25.289913   22.241564
Pt   15.274360   22.452418   24.981141
Pt   16.090254   22.791351   27.667559
Pt   16.421546   24.915490   25.812232
Pt   20.440797   27.808690   16.737818
Pt   17.833752   27.131029   17.627662
Pt   16.457114   28.784139   19.418855
Pt   18.602387   27.418288   20.354973
Pt   18.995649   29.546435   18.473585
Pt   15.984616   26.719505   21.258471
Pt   16.771546   27.025303   23.968967
Pt   17.147198   29.146839   22.113999
Pt   17.664038   31.119408   20.280576
Pt   26.013066   14.754049   18.171447
Pt   28.204526   13.532352   19.238112
Pt   28.606864   15.545944   17.395759
Pt   25.642161   12.764853   20.089942
Pt   24.205246   14.406877   21.811788
Pt   26.425105   12.951743   22.798621
Pt   26.836254   15.105233   20.941701
Pt   23.779864   12.388711   23.593393
Pt   22.379225   14.007992   25.397106
Pt   28.671705   11.961710   23.824475
Pt   25.006098   14.625809   24.597161
Pt   23.178867   14.490112   28.057582
Pt   26.731054   18.968972   14.492054
Pt   28.960688   17.642950   15.569117
Pt   27.892248   21.455813   15.404955
Pt   26.385506   16.852876   16.327388
Pt   24.923192   18.564217   18.032431
Pt   27.219280   17.184228   19.054150
Pt   27.572595   19.296669   17.208556
Pt   24.557434   16.467834   19.887666
Pt   23.101269   18.206776   21.652671
Pt   25.380536   16.831348   22.694353
Pt   25.751700   18.924710   20.797516
Pt   22.720221   16.064013   23.547440
Pt   21.255007   17.801122   25.246334
Pt   23.563102   16.431233   26.247552
Pt   23.924188   18.562588   24.382139
Pt   20.913144   15.701590   27.108802
Pt   19.470362   17.449970   28.809995
Pt   21.764293   16.142402   29.755347
Pt   22.113114   18.152075   27.966970
Pt   20.368228   17.911436   31.361740
Pt   24.478798   20.380012   13.494822
Pt   25.982429   24.977595   12.643166
Pt   24.831493   22.551320   11.857748
Pt   30.436518   22.182170   14.605467
Pt   25.262619   20.686524   16.196869
Pt   23.803869   22.480799   17.920128
Pt   26.100696   21.046367   18.940857
Pt   26.422839   23.197310   17.134061
Pt   23.463887   20.333350   19.779530
Pt   21.996574   22.104432   21.504903
Pt   24.283484   20.681910   22.507787
Pt   24.633753   22.821824   20.637511
Pt   21.633584   19.956015   23.371114
Pt   20.172034   21.717093   25.074216
Pt   22.472482   20.292950   26.089759
Pt   22.816657   22.439534   24.232138
Pt   19.811061   19.544655   26.937106
Pt   18.407785   21.354264   28.632048
Pt   20.676941   19.942675   29.627671
Pt   21.037155   22.066771   27.748127
Pt   18.114494   19.279455   30.439222
Pt   19.229514   21.692721   31.333708
Pt   27.071129   21.157697   12.780942
Pt   24.507057   26.775986   14.204228
Pt   25.628006   22.871811   14.404755
Pt   26.786452   25.333963   15.263417
Pt   24.132826   24.655373   16.043741
Pt   22.689559   26.406464   17.729109
Pt   24.982035   24.975205   18.781698
Pt   25.343982   27.123259   16.913013
Pt   22.345564   24.250534   19.625249
Pt   20.878131   25.979810   21.350590
Pt   23.172017   24.581443   22.361544
Pt   23.537434   26.709634   20.484603
Pt   20.519805   23.860008   23.224686
Pt   19.024608   25.626045   24.959453
Pt   21.353058   24.206035   25.943138
Pt   21.704075   26.319383   24.096506
Pt   18.682321   23.505047   26.789591
Pt   17.252731   25.242949   28.507810
Pt   19.576230   23.814048   29.480424
Pt   19.888359   25.967041   27.674649
Pt   17.031047   23.093534   30.286656
Pt   18.209169   25.509362   31.059976
Pt   27.090151   27.383575   13.543980
Pt   23.064985   28.523769   15.896929
Pt   21.610372   30.241719   17.607537
Pt   23.898696   28.854278   18.613517
Pt   25.681247   29.151804   15.148131
Pt   21.237521   28.117493   19.441615
Pt   19.818254   29.823380   21.229483
Pt   22.086936   28.388245   22.222395
Pt   22.441517   30.533171   20.363619
Pt   19.381920   27.722856   23.103807
Pt   17.952931   29.463445   24.819138
Pt   20.238345   28.076971   25.830701
Pt   20.627530   30.146839   23.944275
Pt   17.600024   27.362006   26.673359
Pt   18.503986   27.631736   29.304555
Pt   18.852291   29.730839   27.469898
Pt   24.240349   30.875373   16.841011
Pt   20.218926   31.874104   19.414136
Pt   20.987970   32.264291   22.086188
Pt   18.427173   31.490134   22.945741
Pt   19.244358   31.744517   25.609058
Pt   29.502987   15.810916   20.050793
Pt   29.077003   13.747786   21.902972
Pt   27.647785   15.376850   23.668498
Pt   29.885608   14.156337   24.658374
Pt   30.305131   16.129412   22.772372
Pt   27.301844   13.411292   25.553577
Pt   25.816344   15.070059   27.270606
Pt   28.464340   15.752913   26.440059
Pt   29.263816   19.768316   13.820168
Pt   29.859837   17.909030   18.205319
Pt   28.430219   19.630876   19.930279
Pt   30.679152   18.236359   20.913895
Pt   31.036498   20.355682   19.075400
Pt   28.066133   17.522447   21.791663
Pt   26.577947   19.277006   23.528598
Pt   28.841574   17.828025   24.525933
Pt   29.245866   19.971499   22.640814
Pt   26.215069   17.114935   25.424732
Pt   24.769505   18.866991   27.138672
Pt   27.011770   17.471184   28.141177
Pt   27.391182   19.579314   26.282655
Pt   24.396107   16.766687   28.992090
Pt   22.955389   18.513230   30.682302
Pt   25.576905   19.213199   29.839017
Pt   28.243754   23.587793   13.560381
Pt   29.054172   23.918288   16.262277
Pt   30.210267   20.027065   16.377072
Pt   29.343624   26.006462   14.463703
Pt   28.771926   21.755271   18.098371
Pt   27.273141   23.541885   19.803690
Pt   29.600606   22.113016   20.786188
Pt   29.904253   24.262220   18.948581
Pt   26.937165   21.395779   21.652384
Pt   25.458596   23.153471   23.356669
Pt   27.750500   21.748681   24.376183
Pt   28.114333   23.880469   22.494917
Pt   25.111510   21.018068   25.242977
Pt   23.655798   22.784102   26.954940
Pt   25.933759   21.331046   27.991126
Pt   26.268518   23.491260   26.079015
Pt   23.329414   20.616880   28.831250
Pt   21.845649   22.402826   30.477700
Pt   24.122100   20.963428   31.527567
Pt   24.472743   23.122157   29.690226
Pt   21.495187   20.309390   32.249127
Pt   22.653532   22.731096   33.022437
Pt   31.534568   24.597534   15.476002
Pt   27.983586   27.837112   16.089530
Pt   30.244231   26.426520   17.080839
Pt   27.644030   25.727944   17.951519
Pt   26.204307   27.472590   19.627642
Pt   28.490127   26.051236   20.646207
Pt   28.809277   28.178821   18.782158
Pt   25.822410   25.307694   21.492899
Pt   24.363616   27.045467   23.229117
Pt   26.614170   25.617137   24.211274
Pt   27.018663   27.799526   22.338352
Pt   23.989448   24.920116   25.097843
Pt   22.535818   26.696957   26.850217
Pt   24.816714   25.289846   27.843762
Pt   25.166054   27.404965   25.990142
Pt   22.204889   24.580084   28.683442
Pt   20.738727   26.306413   30.382964
Pt   22.993554   24.897258   31.382116
Pt   23.350279   27.031651   29.539515
Pt   20.405871   24.121626   32.100892
Pt   26.534046   29.579111   17.773132
Pt   25.089713   31.302516   19.486760
Pt   27.354543   29.918546   20.473118
Pt   24.758016   29.188003   21.341822
Pt   24.381251   33.158789   23.901839
Pt   25.538896   29.521613   24.092884
Pt   23.250897   30.862546   23.079673
Pt   22.903953   28.793063   24.999262
Pt   21.439570   30.523095   26.696274
Pt   23.701197   29.134163   27.700185
Pt   24.051070   31.240832   25.831410
Pt   21.074515   28.422115   28.545111
Pt   22.809768   32.504779   18.569997
Pt   23.586364   32.895062   21.231528
Pt   21.800093   32.513153   24.762486
Pt   31.018621   16.528821   25.492367
Pt   31.840388   20.683554   21.749304
Pt   31.466660   18.539424   23.623510
Pt   29.997768   20.274050   25.367575
Pt   32.146841   18.919244   26.323124
Pt   32.609996   20.964109   24.443605
Pt   29.624815   18.169293   27.269723
Pt   28.172074   19.929740   28.986284
Pt   30.753252   20.599847   28.113611
Pt   32.341502   24.922132   18.059127
Pt   32.147882   22.819127   19.920121
Pt   30.828065   24.626742   21.609198
Pt   33.579086   23.385915   25.303064
Pt   32.904799   23.091367   22.647626
Pt   30.385089   22.469964   23.469236
Pt   28.916333   24.255673   25.239598
Pt   31.077290   22.754460   26.169307
Pt   28.797411   30.437446   25.845442
Pt   28.537275   22.063928   27.128111
Pt   27.074192   23.829982   28.799485
Pt   29.302143   22.420844   29.770300
Pt   32.210269   25.089137   26.979008
Pt   26.733161   21.678622   30.681288
Pt   25.224931   23.434565   32.276304
Pt   27.743342   24.134277   31.377338
Pt   31.036084   26.740786   19.763342
Pt   31.699475   27.109665   22.441541
Pt   30.302183   28.771994   24.172997
Pt   29.272323   26.342076   23.360108
Pt   27.786127   28.071998   25.072258
Pt   30.096605   26.691833   26.086502
Pt   29.606886   28.528667   21.465571
Pt   27.453215   25.972731   26.953809
Pt   25.968698   27.739701   28.682867
Pt   28.120263   26.279197   29.616171
Pt   26.622492   31.872222   24.898461
Pt   25.592306   25.613638   30.542153
Pt   28.146610   30.248848   23.189112
Pt   25.890205   31.636240   22.195396
Pt   28.510929   28.379964   27.723625
Pt   26.311186   29.849995   26.825468
Pt   31.826411   23.034203   28.772696
Pt   33.203108   21.338805   27.105244
Pt   31.578276   24.991230   24.310396
Pt   29.711355   24.604851   28.007324
