309
Generated with con2xyz
Pt   19.592477   22.020755   10.650401
Pt   20.598780   21.271860   13.043601
Pt   21.672322   20.473822   15.588539
Pt   22.747064   19.675092   18.139440
Pt   23.823237   18.877665   20.704264
Pt   24.887373   18.081196   23.252393
Pt   25.956528   17.298459   25.810309
Pt   27.474428   14.969202   26.007738
Pt   22.307674   22.260034   11.073749
Pt   23.384443   21.499811   13.530490
Pt   24.450271   20.688440   16.098335
Pt   25.533848   19.886755   18.667032
Pt   26.607755   19.087403   21.237680
Pt   27.693837   18.298900   23.810495
Pt   28.589116   20.268872   25.648658
Pt   20.456571   23.980802   12.389101
Pt   21.501916   23.249086   14.865685
Pt   22.575282   22.432986   17.427031
Pt   23.655203   21.634770   19.996459
Pt   24.730047   20.832881   22.565945
Pt   25.806267   20.049665   25.140197
Pt   26.834046   19.249870   27.603000
Pt   18.093047   22.493653   12.917714
Pt   19.096166   21.730825   15.402821
Pt   20.189204   20.923254   17.956440
Pt   21.270516   20.117240   20.525648
Pt   22.343511   19.317519   23.095331
Pt   23.409410   18.536493   25.675376
Pt   26.959595   16.560380   28.207516
Pt   18.480691   19.843544   11.926446
Pt   19.491444   19.037284   14.398371
Pt   20.583341   18.244731   16.958388
Pt   21.665013   17.438778   19.533589
Pt   22.735125   16.632245   22.090273
Pt   23.806805   15.842322   24.677833
Pt   25.357848   13.480865   24.903369
Pt   21.083059   19.701568   10.792591
Pt   22.137897   18.894309   13.248523
Pt   23.214941   18.096228   15.819978
Pt   24.298226   17.290403   18.390293
Pt   25.361575   16.490498   20.940809
Pt   26.454011   15.697124   23.516392
Pt   22.316750   16.313528   27.052441
Pt   25.086618   22.462210   11.593949
Pt   26.164834   21.715786   14.058040
Pt   27.227413   20.913068   16.630262
Pt   28.310113   20.115944   19.208981
Pt   29.398035   19.311783   21.789477
Pt   30.399852   18.530828   24.275052
Pt   23.227071   24.246578   12.847355
Pt   24.308056   23.482067   15.361933
Pt   25.368177   22.650291   17.937453
Pt   26.457877   21.846345   20.533595
Pt   27.549730   21.062344   23.126786
Pt   28.428064   23.013164   24.957694
Pt   21.361594   25.926988   14.230638
Pt   22.418101   25.192578   16.706699
Pt   23.497238   24.375333   19.270721
Pt   24.579303   23.573356   21.849325
Pt   25.650997   22.787887   24.434873
Pt   26.674878   21.987455   26.899880
Pt   18.948624   24.484548   14.725284
Pt   19.991777   23.711871   17.246525
Pt   21.080072   22.881235   19.819847
Pt   22.164045   22.074747   22.405618
Pt   23.242966   21.301023   24.999188
Pt   24.306761   20.512269   27.506838
Pt   16.629521   22.945343   15.304524
Pt   17.625804   22.170308   17.792221
Pt   18.720188   21.354304   20.348381
Pt   19.789433   20.555288   22.903636
Pt   20.864364   19.779851   25.491775
Pt   24.474908   17.763280   28.130542
Pt   16.948474   20.291754   14.245749
Pt   17.981376   19.493197   16.772009
Pt   19.095047   18.696561   19.339515
Pt   20.179381   17.878720   21.931259
Pt   21.247032   17.082020   24.532931
Pt   24.866497   15.112154   27.151929
Pt   17.406272   17.619695   13.300231
Pt   18.416332   16.809214   15.779064
Pt   19.510773   16.027404   18.356438
Pt   20.578324   15.203098   20.908176
Pt   21.653084   14.420380   23.520582
Pt   22.713435   13.688090   26.000676
Pt   19.982914   17.456267   12.098676
Pt   21.037192   16.635337   14.610857
Pt   22.139500   15.858101   17.201785
Pt   23.206586   15.029562   19.754920
Pt   24.300897   14.233298   22.371350
Pt   25.852311   11.902369   22.591422
Pt   22.623347   17.342190   11.035419
Pt   23.681965   16.526205   13.499485
Pt   24.772481   15.712348   16.086033
Pt   25.844577   14.879480   18.609364
Pt   27.952532   13.397730   23.686948
Pt   28.693545   17.526091   26.295067
Pt   23.859233   19.912467   11.230870
Pt   24.933582   19.113970   13.742043
Pt   25.998573   18.301300   16.333679
Pt   27.082185   17.493986   18.922712
Pt   28.191800   16.697491   21.503617
Pt   29.235485   15.929198   24.031529
Pt   27.870650   22.636157   12.108848
Pt   28.960528   21.917109   14.611915
Pt   34.170672   18.947209   17.930987
Pt   33.546982   23.224840   19.558199
Pt   32.104262   19.527192   22.236945
Pt   26.009076   24.449389   13.350959
Pt   27.106385   23.713912   15.892659
Pt   28.148776   22.874145   18.473693
Pt   29.261713   22.078401   21.100248
Pt   30.307827   21.264885   23.632052
Pt   24.117479   26.206075   14.685831
Pt   25.232080   25.426533   17.210709
Pt   26.287711   24.578863   19.791682
Pt   27.393681   23.804374   22.416993
Pt   28.275703   25.759258   24.243436
Pt   22.275079   27.871268   16.089732
Pt   23.346572   27.133376   18.579401
Pt   24.424876   26.339308   21.130915
Pt   27.201095   26.538678   21.648621
Pt   26.514483   24.733158   26.179474
Pt   19.865093   26.438753   16.555423
Pt   20.912836   25.651712   19.078081
Pt   22.028935   24.784282   21.658118
Pt   23.098373   24.031446   24.291691
Pt   24.164716   23.251167   26.811144
Pt   17.470157   24.936322   17.124185
Pt   18.511800   24.155312   19.663759
Pt   19.565413   23.317940   22.235321
Pt   20.671672   22.557820   24.808024
Pt   21.744338   21.761050   27.330462
Pt   15.177610   23.422538   17.701130
Pt   16.185601   22.604635   20.219866
Pt   17.215934   21.846949   22.754702
Pt   18.314649   21.043989   25.269743
Pt   21.933049   19.012794   27.950412
Pt   15.479250   20.749986   16.618005
Pt   16.495143   19.921411   19.165735
Pt   17.620787   19.133760   21.725336
Pt   18.700187   18.315106   24.349723
Pt   19.784944   17.559204   26.883728
Pt   15.874568   18.054491   15.603908
Pt   16.904983   17.269655   18.164008
Pt   18.032870   16.477288   20.734555
Pt   19.094343   15.652081   23.359858
Pt   20.167330   14.871487   25.895516
Pt   15.321888   13.235229   16.131325
Pt   17.371692   14.571277   17.202854
Pt   18.412677   13.755310   19.715252
Pt   16.294391   12.295430   18.577938
Pt   18.394000   10.887227   23.605767
Pt   18.887804   15.221490   13.468636
Pt   19.968963   14.393677   16.015822
Pt   21.032918   13.625885   18.533056
Pt   22.148177   12.827819   21.228830
Pt   23.196308   12.057200   23.775177
Pt   21.530868   15.075439   12.330536
Pt   22.597707   14.242825   14.893546
Pt   23.699176   13.425401   17.391415
Pt   24.789240   12.668247   20.022704
Pt   26.240369   10.404143   20.279875
Pt   24.147471   14.983742   11.274740
Pt   21.492105   11.968127   16.205586
Pt   26.346151   13.239246   16.309710
Pt   26.923093   14.129668   21.181590
Pt   28.392273   11.875617   21.349485
Pt   25.395482   17.552095   11.471774
Pt   26.492037   16.731071   13.997382
Pt   27.538077   15.881378   16.594617
Pt   28.643907   15.114629   19.162033
Pt   29.712794   14.343781   21.717854
Pt   26.642783   20.117913   11.747554
Pt   27.704265   19.328026   14.266781
Pt   28.741029   18.537989   16.900310
Pt   29.886436   17.716799   19.489728
Pt   30.947876   16.944510   22.021416
Pt   31.802116   22.109512   15.134487
Pt   31.495134   24.776403   14.436267
Pt   30.864011   25.822447   18.424967
Pt   27.777970   28.336794   17.075405
Pt   28.781331   24.616209   13.828117
Pt   30.030651   21.145293   17.159817
Pt   32.024201   22.251907   21.614858
Pt   32.855791   21.345176   17.652007
Pt   25.028372   28.157816   16.536789
Pt   26.870789   26.419188   15.189514
Pt   29.078820   24.826012   20.351888
Pt   30.146382   24.017219   22.943245
Pt   26.148886   27.335251   19.097169
Pt   25.920579   29.927593   18.439485
Pt   28.067964   25.675666   17.764985
Pt   28.044966   28.360803   23.418886
Pt   23.201289   29.764127   17.984260
Pt   24.268308   29.131167   20.479314
Pt   23.808313   28.593590   25.263873
Pt   26.331211   27.453358   25.404591
Pt   20.777887   28.382219   18.410809
Pt   22.929412   26.761561   23.508333
Pt   21.713863   30.144356   20.290522
Pt   24.006037   25.991933   26.095525
Pt   18.384024   26.889143   18.947256
Pt   19.475662   26.057815   21.509872
Pt   20.540369   25.269702   24.047506
Pt   21.610542   24.494206   26.640640
Pt   16.035002   25.354973   19.550335
Pt   16.991809   24.624172   22.107692
Pt   18.055735   23.835277   24.641798
Pt   19.195150   23.001130   27.093820
Pt   12.642079   21.627749   21.373028
Pt   11.719587   19.414518   22.594747
Pt   13.634107   20.800526   23.946961
Pt   19.390218   20.276735   27.761803
Pt   13.781187   23.759100   20.077581
Pt   12.075899   16.887929   21.645854
Pt   14.001095   18.089768   23.078766
Pt   17.253972   18.783497   26.712839
Pt   14.407743   18.490652   17.955038
Pt   15.390209   17.682659   20.594138
Pt   16.539830   16.893967   23.136124
Pt   17.628702   16.099036   25.719592
Pt   16.325573   15.386389   14.684700
Pt   15.874497   15.038879   19.579535
Pt   19.480788   13.002710   22.330419
Pt   20.548175   12.267070   24.829620
Pt   17.833551   13.089269   14.895202
Pt   13.905230   13.635022   18.416491
Pt   15.934683   12.163652   23.454073
Pt   17.999533   13.444800   24.724062
Pt   21.042817   10.636002   22.612870
Pt   19.984315   11.460678   20.011704
Pt   18.969647   9.356299   21.374628
Pt   24.155294   11.844218   15.125854
Pt   20.460261   12.948676   13.737899
Pt   18.872862   12.116932   17.356369
Pt   20.500671   9.874483   17.785927
Pt   23.681495   10.483770   21.474639
Pt   25.245020   14.161565   13.792630
Pt   25.254207   11.068045   17.705354
Pt   27.434959   12.495648   18.845337
Pt   21.527172   9.171424   20.278562
Pt   26.927239   15.212766   11.706913
Pt   17.965814   10.049816   18.903549
Pt   25.659758   12.708433   11.539405
Pt   24.086551   9.072243   19.166340
Pt   29.642156   15.381542   12.365711
Pt   32.031020   17.161706   15.104393
Pt   29.155219   13.546113   16.852455
Pt   30.160265   12.883973   19.393178
Pt   28.204705   17.743398   11.995129
Pt   30.314029   16.176039   17.132644
Pt   31.539642   18.750363   17.414765
Pt   31.428432   15.374821   19.706900
Pt   29.431966   20.302097   12.278145
Pt   33.187981   19.679667   15.403204
Pt   32.619806   24.075523   17.010495
Pt   32.652507   17.947534   19.980712
Pt   31.097592   20.324960   19.733136
Pt   30.640017   22.796521   12.689244
Pt   31.783530   24.918020   20.926927
Pt   29.596737   26.594792   15.598169
Pt   28.939445   27.604897   19.650375
Pt   30.931973   23.066498   19.023261
Pt   29.908771   26.685025   22.179549
Pt   29.902701   23.921798   16.452887
Pt   30.443416   28.301301   17.487935
Pt   32.201829   26.640350   16.241184
Pt   27.037477   29.206167   20.926932
Pt   25.323669   28.356474   22.977383
Pt   21.862965   27.550473   20.970803
Pt   22.721482   29.428571   22.812370
Pt   25.487377   25.541743   23.696810
Pt   19.370957   28.728792   20.809867
Pt   20.385148   28.015482   23.352532
Pt   21.477724   27.166277   25.822025
Pt   17.072321   27.242345   21.324643
Pt   18.082409   26.519880   23.854153
Pt   19.169034   25.682625   26.319076
Pt   14.682940   23.002703   22.589645
Pt   15.734611   22.223470   25.103634
Pt   16.871147   21.413539   27.488853
Pt   16.166438   19.579342   24.121438
Pt   14.024306   21.227444   18.973490
Pt   14.810594   20.001386   26.397677
Pt   15.030106   20.347028   21.580903
Pt   15.199786   17.364456   25.514284
Pt   15.541847   14.727843   24.467672
Pt   13.374568   16.245134   19.368009
Pt   12.938897   19.000263   20.239706
Pt   14.354988   15.430549   21.969972
Pt   14.795736   15.822366   16.991507
Pt   14.852129   12.867726   20.931094
Pt   16.942751   14.253452   22.120093
Pt   17.273785   11.526335   21.130823
Pt   23.068103   9.788450   16.691031
Pt   22.603572   11.314697   18.874431
Pt   26.680555   11.868201   13.898227
Pt   28.294479   12.941014   12.020205
Pt   23.108042   12.796729   12.645730
Pt   30.905369   17.944660   12.633506
Pt   30.800944   14.667385   14.875454
Pt   31.790110   13.939784   17.403821
Pt   28.070498   14.287946   14.325407
Pt   32.089638   20.454088   12.943422
Pt   33.016699   16.429599   17.652981
Pt   30.475086   19.519453   14.868426
Pt   29.252316   16.938875   14.572769
Pt   33.754483   20.540116   20.161973
