309
Generated with con2xyz
Pt   23.758876   18.515171   11.304042
Pt   24.580626   21.238226   11.333367
Pt   27.959488   15.571474   24.663844
Pt   25.718598   27.064229   24.316655
Pt   22.908312   14.677916   22.843381
Pt   22.684323   14.721224   25.683876
Pt   21.047494   20.674683   26.892914
Pt   19.823036   14.668314   25.453694
Pt   16.851432   29.245898   19.210989
Pt   22.406194   20.424763   9.842567
Pt   22.866751   18.666131   22.742383
Pt   19.287603   30.935476   16.547985
Pt   23.933107   21.392522   19.882741
Pt   19.180886   26.187662   19.436346
Pt   21.107300   16.695136   26.970219
Pt   26.444902   14.651187   14.475145
Pt   26.369567   22.191323   18.640874
Pt   16.923785   17.156004   13.585267
Pt   22.075473   25.324578   12.500093
Pt   26.202402   27.027972   18.538626
Pt   17.069079   21.978209   17.871345
Pt   19.101207   23.764316   20.929417
Pt   22.193122   20.467558   12.537179
Pt   19.278394   21.288490   19.513745
Pt   16.834406   22.017604   20.768488
Pt   12.684882   23.311999   14.759259
Pt   12.090492   23.419467   20.339787
Pt   18.806413   21.362625   25.302766
Pt   18.620457   21.386141   28.079980
Pt   18.204602   19.191501   15.055587
Pt   25.982419   19.314046   12.847386
Pt   24.777431   12.595442   18.591229
Pt   18.923834   16.517808   18.070993
Pt   20.215427   18.555375   19.620434
Pt   17.288589   19.360955   26.631545
Pt   19.549041   18.703760   28.187431
Pt   19.401974   16.482208   12.424436
Pt   23.326702   18.593798   16.968302
Pt   27.133324   17.441859   17.257803
Pt   13.340654   20.651826   17.611202
Pt   21.277928   20.634939   24.021688
Pt   23.479900   21.470647   25.653009
Pt   23.298634   23.936938   27.040651
Pt   24.909261   16.607207   15.665699
Pt   28.011562   23.040885   25.840165
Pt   21.035685   30.267654   23.732346
Pt   25.721794   24.716774   25.795677
Pt   27.761857   20.283782   20.198227
Pt   25.301304   19.463143   21.477195
Pt   30.171224   21.013910   18.973233
Pt   24.439905   16.695000   21.445077
Pt   22.271884   16.495198   12.582309
Pt   25.536700   19.432522   18.578431
Pt   28.318523   27.818630   20.060847
Pt   29.034680   18.298216   21.783346
Pt   21.964669   20.520253   15.405107
Pt   19.127211   31.073605   19.375059
Pt   19.051698   21.329152   22.410590
Pt   21.501310   20.594498   21.150287
Pt   23.355316   26.377995   25.579397
Pt   20.881929   23.113449   28.234360
Pt   17.287126   21.917088   14.966602
Pt   19.731767   21.197037   13.730699
Pt   16.703956   31.580919   20.563544
Pt   26.594315   22.119880   15.750724
Pt   16.410990   24.506969   25.063681
Pt   18.641819   23.832545   26.681291
Pt   19.515078   21.251031   16.622452
Pt   17.113938   24.405685   16.334663
Pt   12.012846   23.424787   23.107510
Pt   11.259520   21.308507   16.047556
Pt   14.656909   25.104260   17.613635
Pt   16.399662   22.062845   26.450282
Pt   16.523414   17.289389   19.358389
Pt   19.466739   28.561788   15.065629
Pt   14.466793   17.894265   14.832029
Pt   15.290482   20.000966   22.165943
Pt   18.004623   19.253311   17.962573
Pt   15.729709   12.681242   23.566629
Pt   14.763628   27.533684   16.132576
Pt   15.851986   12.521815   20.791993
Pt   21.864740   12.627778   18.408354
Pt   19.749833   18.634985   25.412272
Pt   20.130724   10.774298   22.556651
Pt   18.266488   16.679631   26.664954
Pt   10.809077   21.382167   21.661765
Pt   20.918978   18.458175   11.077043
Pt   23.700804   21.428035   22.760648
Pt   26.382618   17.540327   25.957219
Pt   25.522649   14.816082   25.828483
Pt   22.385949   18.758899   28.413811
Pt   31.581734   19.063408   17.636979
Pt   20.678170   18.463359   13.851745
Pt   14.982776   15.295897   20.696781
Pt   18.794724   12.638314   21.021850
Pt   21.011611   27.957178   25.278898
Pt   20.832033   20.710322   29.585535
Pt   28.603404   23.038939   20.280031
Pt   20.454117   18.522011   16.732871
Pt   31.424785   19.078130   20.570061
Pt   26.239542   14.680772   17.289505
Pt   23.617441   26.348206   22.697911
Pt   23.217837   21.491036   28.432713
Pt   23.370954   10.778698   17.124072
Pt   23.205272   10.710195   19.964001
Pt   28.330672   25.528107   21.638971
Pt   27.397767   12.723855   21.716043
Pt   26.458346   24.608791   17.117528
Pt   21.637353   12.656773   21.263662
Pt   19.792659   23.626074   12.274862
Pt   21.870694   25.414806   15.287173
Pt   26.208714   29.374039   17.069545
Pt   21.569089   23.024104   19.664073
Pt   26.470986   27.001849   15.616167
Pt   21.106620   23.114052   25.453716
Pt   28.642491   25.441043   18.775419
Pt   21.537217   30.386756   18.115488
Pt   21.266557   27.933498   22.451756
Pt   16.636626   24.485349   22.225746
Pt   21.697533   30.215892   15.332436
Pt   23.713392   28.808046   21.250543
Pt   20.942157   25.529323   26.765220
Pt   26.241154   24.666629   20.046663
Pt   19.994570   18.602534   22.518158
Pt   21.647210   25.460799   18.198828
Pt   23.767022   23.856013   21.281781
Pt   18.859979   23.811154   23.852413
Pt   21.808607   22.996201   16.792149
Pt   15.091732   22.589405   13.448599
Pt   18.440059   19.156068   12.236430
Pt   14.664645   29.899025   17.631467
Pt   14.369874   22.719133   22.006571
Pt   14.593306   22.709301   19.121599
Pt   14.447638   29.934568   20.413487
Pt   12.547319   25.795398   16.074391
Pt   17.772795   19.298164   20.900821
Pt   17.600894   14.410949   16.519884
Pt   20.750325   14.512731   13.908538
Pt   12.255588   28.213194   20.253505
Pt   19.632387   26.097364   13.655524
Pt   15.064173   20.047290   25.003003
Pt   23.560957   18.528612   14.086663
Pt   12.093858   25.871017   21.720553
Pt   20.345615   10.670653   19.723173
Pt   10.963567   21.315708   18.849214
Pt   25.078574   19.487163   24.392824
Pt   19.164083   16.476146   15.213385
Pt   17.432952   14.515466   19.422564
Pt   19.341923   23.732375   18.019872
Pt   13.774541   18.018903   23.468172
Pt   24.668810   16.673008   18.553950
Pt   18.947973   12.492490   18.097525
Pt   21.577745   16.623696   21.220582
Pt   20.658231   10.739837   16.890519
Pt   22.978631   10.824243   22.794796
Pt   15.988347   19.883763   13.467573
Pt   19.326089   12.580188   15.283247
Pt   14.191035   25.186118   23.422603
Pt   23.395309   14.575939   17.007154
Pt   21.403452   12.678329   24.146327
Pt   28.175146   20.141171   14.456715
Pt   17.190573   14.586723   22.333142
Pt   27.243873   20.324284   25.965063
Pt   25.755717   10.930853   23.039736
Pt   17.929692   14.533725   13.793884
Pt   21.337939   16.646598   24.141477
Pt   20.505128   14.520431   16.777785
Pt   25.897293   22.259374   24.362002
Pt   16.007543   17.333919   25.114771
Pt   24.454146   23.723627   12.651929
Pt   29.860569   13.603576   17.658195
Pt   25.631137   22.270521   27.160991
Pt   29.436638   13.735285   23.267522
Pt   30.274986   16.396973   23.356128
Pt   29.710097   13.631782   20.459672
Pt   27.501804   20.289098   23.095712
Pt   26.015494   14.686178   20.135221
Pt   23.166439   14.672198   19.893401
Pt   32.708265   17.231578   19.164737
Pt   28.802742   22.958275   17.434037
Pt   27.328294   17.381270   14.411935
Pt   26.056945   27.199749   21.500817
Pt   30.927929   23.652191   16.018344
Pt   28.376842   23.076846   23.092497
Pt   24.113416   28.625350   15.379563
Pt   25.958851   24.697314   22.886823
Pt   28.915670   22.883468   14.518909
Pt   19.283520   28.615834   17.937978
Pt   12.209650   25.842654   18.888419
Pt   18.870747   31.006305   22.186305
Pt   18.780930   28.676248   23.738091
Pt   26.751469   22.053432   12.939212
Pt   27.994799   25.438088   24.455370
Pt   24.276842   26.181158   14.014731
Pt   17.032354   29.265649   16.295467
Pt   18.714974   26.258566   25.222323
Pt   18.936245   26.226752   22.381461
Pt   21.338453   23.064036   22.560229
Pt   24.161334   21.360534   17.013217
Pt   19.038108   28.649416   20.870816
Pt   14.577289   27.519599   19.053837
Pt   21.175850   25.530201   23.983827
Pt   28.816476   25.351404   15.919900
Pt   16.889967   24.448732   19.279537
Pt   17.539342   21.861398   12.195532
Pt   16.493191   26.928004   23.612166
Pt   19.563490   23.690486   15.101413
Pt   16.072904   12.526862   18.013869
Pt   20.284756   14.614761   19.662623
Pt   14.419111   25.143881   20.553564
Pt   12.319600   23.381985   17.502582
Pt   21.894442   27.784564   13.898443
Pt   26.841341   17.502358   20.163217
Pt   12.847821   20.727909   23.365470
Pt   16.570535   29.342052   22.125561
Pt   18.714107   16.572998   20.986434
Pt   11.673305   18.732435   21.783572
Pt   17.506031   19.321278   23.804822
Pt   14.251684   17.950758   17.720729
Pt   14.022632   17.985827   20.580632
Pt   11.818689   18.662847   18.954618
Pt   13.554109   13.431297   22.004943
Pt   16.989082   14.659090   25.132514
Pt   12.474933   28.175784   17.485021
Pt   13.978381   13.400222   16.462651
Pt   16.700081   17.204643   16.414126
Pt   12.748743   15.981676   19.069951
Pt   23.641058   14.563434   14.156828
Pt   13.697473   13.362611   19.187722
Pt   15.762247   19.916307   16.302537
Pt   15.408308   15.218670   14.972754
Pt   25.974190   10.822809   20.308915
Pt   25.777309   14.748706   23.030436
Pt   22.126311   12.583764   15.475265
Pt   23.095454   18.630028   19.857178
Pt   21.804910   16.587675   18.307109
Pt   24.970358   12.656914   15.771391
Pt   25.784534   19.363646   15.683311
Pt   20.062014   14.622963   22.615768
Pt   21.731450   20.554959   18.269829
Pt   22.043904   16.506327   15.414599
Pt   29.332123   18.244317   18.922451
Pt   18.550393   12.651424   23.929909
Pt   18.470122   16.612260   23.888268
Pt   24.252199   12.755723   24.395287
Pt   30.789606   16.270076   17.608672
Pt   28.667302   15.453810   15.987797
Pt   17.192451   26.809386   14.879545
Pt   26.636835   17.515558   23.109896
Pt   29.518025   18.216749   16.011317
Pt   24.065042   26.270676   16.887038
Pt   19.987184   21.140567   10.959413
Pt   26.647864   24.546155   14.258252
Pt   24.203071   16.724765   24.349891
Pt   21.396802   25.471254   21.067351
Pt   24.017700   23.852622   18.410368
Pt   25.108476   16.592505   12.881624
Pt   23.836309   26.326835   19.862389
Pt   24.252452   23.797967   15.497582
Pt   30.318835   21.006202   16.093388
Pt   23.544858   23.923886   24.203841
Pt   24.825009   19.524037   27.224957
Pt   19.417972   26.155840   16.497769
Pt   22.635253   18.694808   25.638199
Pt   24.399083   21.300902   14.125655
Pt   14.888322   25.068046   14.747612
Pt   21.498026   27.949188   19.610600
Pt   23.877304   28.766340   18.389150
Pt   14.296911   27.611535   21.969795
Pt   26.097935   29.402242   19.864873
Pt   21.724275   27.894520   16.716602
Pt   12.605455   16.041566   21.895904
Pt   28.486326   27.749241   17.299592
Pt   22.034062   22.953082   13.897250
Pt   12.124735   18.659427   16.138489
Pt   16.984328   26.843878   17.726563
Pt   27.766585   12.833452   16.112165
Pt   23.373229   28.714043   24.059410
Pt   16.914692   31.549815   17.806637
Pt   17.336449   24.344850   13.499024
Pt   14.726366   15.320267   23.591220
Pt   14.835802   22.639964   16.239268
Pt   24.475198   12.738718   21.486401
Pt   15.223808   15.272849   17.848690
Pt   16.588515   22.040006   23.673094
Pt   22.248334   22.865315   11.117061
Pt   14.181248   22.746627   24.803796
Pt   16.226755   17.302946   22.278236
Pt   16.736618   26.883839   20.763459
Pt   13.049101   15.963862   16.255063
Pt   13.543534   20.609343   14.711168
Pt   13.110892   20.688769   20.467964
Pt   15.586140   19.990220   19.238431
Pt   31.048396   19.094944   23.374753
Pt   27.088398   12.889795   24.479750
Pt   17.542539   10.701179   19.610544
Pt   17.345716   10.784615   22.349976
Pt   27.997581   20.193007   17.322242
Pt   26.155974   22.223132   21.492652
Pt   30.639231   16.283961   20.544096
Pt   23.949479   16.785881   27.128333
Pt   29.582572   21.052603   24.639001
Pt   28.795291   18.331210   24.707160
Pt   29.924742   21.063676   21.834137
Pt   23.878532   30.891568   16.758992
Pt   28.178738   15.552614   21.754172
Pt   27.596081   12.690634   18.893860
Pt   28.433072   15.511503   18.893526
Pt   21.307417   30.355559   20.995846
