309
Generated with con2xyz
Pt   16.953016   14.613485   18.359587
Pt   19.415025   13.546122   19.077221
Pt   19.281638   15.728574   17.303148
Pt   17.741668   14.792891   20.994723
Pt   14.990236   20.542556   16.878937
Pt   19.139674   18.081933   15.567763
Pt   16.861947   16.827137   16.523323
Pt   14.997169   18.268250   18.628539
Pt   17.572552   17.100856   19.245806
Pt   17.432887   19.399766   17.549994
Pt   16.673041   19.230151   14.952100
Pt   15.271850   15.938094   20.282939
Pt   13.789843   17.359591   22.237061
Pt   16.135902   16.135614   22.949118
Pt   16.017265   18.473357   21.248966
Pt   14.626701   17.556463   24.860850
Pt   17.319139   21.752194   15.859085
Pt   14.650573   15.805027   17.635334
Pt   14.516301   18.008922   16.005639
Pt   15.875431   20.787798   19.539610
Pt   15.709668   23.094080   17.805833
Pt   13.563087   19.637565   20.605059
Pt   14.372488   19.841727   23.234363
Pt   14.230313   22.150431   21.526304
Pt   13.511283   21.870773   18.898367
Pt   21.899262   12.493391   19.801445
Pt   24.384919   11.542468   20.552352
Pt   24.259429   13.619665   18.766323
Pt   22.764952   12.659200   22.463592
Pt   21.615889   16.961621   16.315098
Pt   24.118124   15.893664   17.052955
Pt   23.981373   18.171492   15.375415
Pt   21.753118   14.662155   18.031552
Pt   20.106540   16.002708   19.989714
Pt   22.631167   14.932667   20.726654
Pt   22.503135   17.209692   18.983701
Pt   20.249242   13.710873   21.720514
Pt   18.645123   15.040859   23.667417
Pt   21.157527   13.974484   24.401913
Pt   21.017330   16.240118   22.698948
Pt   19.575347   15.302497   26.324809
Pt   18.999634   20.420554   14.008019
Pt   21.349338   21.614219   13.079404
Pt   30.537438   23.437874   17.164445
Pt   21.475204   19.281904   14.627549
Pt   19.826174   20.627562   16.580531
Pt   22.364182   19.501480   17.294653
Pt   22.213034   21.840212   15.637195
Pt   19.976496   18.289560   18.249411
Pt   18.403305   19.671965   20.246856
Pt   20.910346   18.572640   20.977359
Pt   20.769664   20.882025   19.275043
Pt   18.503854   17.322393   21.962693
Pt   16.894486   18.706386   23.924348
Pt   19.420588   17.579809   24.640679
Pt   19.296306   19.924952   22.935947
Pt   17.049334   16.393471   25.608688
Pt   15.552007   17.815096   27.499506
Pt   17.996024   16.655996   28.258295
Pt   17.825466   18.967165   26.581814
Pt   18.105170   23.131066   31.998325
Pt   22.069985   24.170533   13.979880
Pt   19.689113   22.957968   14.902082
Pt   18.084572   24.301404   16.836775
Pt   20.594265   23.213438   17.559868
Pt   20.461397   25.507136   15.898103
Pt   18.219197   22.002790   18.513169
Pt   16.612048   23.342120   20.502966
Pt   19.156351   22.235652   21.233360
Pt   18.999356   24.559186   19.501418
Pt   16.732124   21.042266   22.238645
Pt   15.144094   22.387312   24.191956
Pt   17.650681   21.289773   24.903072
Pt   17.512365   23.584797   23.209870
Pt   15.293509   20.077389   25.876107
Pt   16.231123   20.348536   28.519084
Pt   16.071393   22.638368   26.840077
Pt   18.881570   26.839934   17.821744
Pt   16.485516   25.624240   18.783796
Pt   14.206752   24.381344   19.811694
Pt   17.408106   25.875735   21.484253
Pt   17.297381   28.147097   19.754082
Pt   15.013087   24.673378   22.479502
Pt   15.935032   24.911367   25.163062
Pt   15.821409   27.183164   23.471198
Pt   14.996367   26.888602   20.785853
Pt   26.638140   14.842370   17.808514
Pt   29.071465   13.929175   18.657191
Pt   28.988966   16.116854   16.950023
Pt   26.755494   12.681153   19.593950
Pt   25.173662   13.934344   21.489328
Pt   27.698305   12.871439   22.232140
Pt   27.571334   15.150290   20.532689
Pt   25.308184   11.748590   23.184126
Pt   23.691100   12.930341   25.138887
Pt   24.654948   13.303872   27.757553
Pt   26.109208   14.203095   24.172586
Pt   23.081323   14.623018   29.670559
Pt   26.364032   19.395646   14.456382
Pt   28.852192   18.383567   15.281082
Pt   27.159073   21.973738   15.507467
Pt   26.515850   17.112199   16.122786
Pt   24.910607   18.426670   18.035769
Pt   27.475626   17.389943   18.805043
Pt   27.338248   19.662738   17.131442
Pt   25.032463   16.165946   19.724513
Pt   23.435385   17.503275   21.716366
Pt   25.969492   16.501710   22.475570
Pt   25.868264   18.733464   20.757867
Pt   23.538523   15.193578   23.447066
Pt   21.960552   16.504943   25.384679
Pt   24.528312   15.473371   26.139749
Pt   24.389965   17.773252   24.429422
Pt   22.114768   14.248046   27.073624
Pt   20.526653   15.584472   28.986438
Pt   21.524034   15.995959   31.502895
Pt   22.945816   16.799797   28.064151
Pt   22.287545   18.481551   32.536093
Pt   23.846765   20.482911   13.711234
Pt   24.489316   25.321335   13.181966
Pt   23.706887   22.802046   12.256370
Pt   29.471036   23.181877   14.601904
Pt   24.757540   20.709049   16.378831
Pt   23.157167   22.095022   18.332942
Pt   25.730978   21.007557   19.083085
Pt   25.559371   23.306582   17.462924
Pt   23.312023   19.789809   20.010165
Pt   21.706406   21.142999   21.973867
Pt   24.260676   20.058939   22.713994
Pt   24.122185   22.363774   21.015694
Pt   21.838687   18.832126   23.675442
Pt   20.234271   20.189224   25.607017
Pt   22.804106   19.102907   26.357983
Pt   22.653808   21.407071   24.670078
Pt   20.374753   17.847601   27.294839
Pt   16.543210   18.111830   30.068106
Pt   21.356396   18.184610   29.949745
Pt   21.219471   20.478358   28.242743
Pt   19.007328   17.029315   30.840162
Pt   19.762705   19.526791   31.881561
Pt   26.210903   21.740752   12.921825
Pt   22.862772   26.713848   14.980457
Pt   24.622574   23.056152   14.769847
Pt   25.421137   25.609169   15.771284
Pt   22.981495   24.429229   16.643394
Pt   21.399159   25.768443   18.556596
Pt   23.974656   24.678870   19.341277
Pt   23.832610   26.995543   17.653898
Pt   21.558938   23.450095   20.270676
Pt   19.958056   24.785620   22.222274
Pt   22.515447   23.710021   22.972883
Pt   22.391950   25.997320   21.272999
Pt   20.089822   22.495791   23.926974
Pt   18.453309   23.845078   25.892841
Pt   21.045822   22.773000   26.608187
Pt   20.909724   25.056166   24.924720
Pt   18.597375   21.562648   27.554196
Pt   17.025090   22.897460   29.495789
Pt   19.615428   21.814411   30.203473
Pt   19.436228   24.120113   28.572744
Pt   17.292980   20.609790   31.091135
Pt   17.918187   25.400279   30.416194
Pt   25.259615   27.802078   14.219924
Pt   21.275182   28.052171   16.899590
Pt   19.716910   29.345052   18.847492
Pt   22.250435   28.302991   19.594419
Pt   23.707330   29.176080   16.048218
Pt   19.824084   27.102607   20.493389
Pt   15.850043   29.323600   21.780238
Pt   20.813886   27.312752   23.197707
Pt   20.658539   29.702319   21.474488
Pt   18.327726   26.106125   24.202262
Pt   16.753882   27.445003   26.141970
Pt   19.300530   26.392229   26.897701
Pt   19.209834   28.632082   25.172886
Pt   16.885501   25.180136   27.830886
Pt   17.783560   27.662507   28.748626
Pt   17.707402   29.846149   27.042527
Pt   25.628793   29.805591   21.318188
Pt   18.284128   28.379160   22.489925
Pt   18.124175   30.522423   20.840465
Pt   16.759918   29.649250   24.413846
Pt   20.038397   31.091438   26.112949
Pt   30.018536   16.329357   19.557008
Pt   30.019701   14.115060   21.283489
Pt   28.509909   15.411572   23.216708
Pt   28.582334   13.194432   24.879534
Pt   30.900454   14.408578   23.925793
Pt   26.200030   12.075041   25.817770
Pt   27.081144   14.437130   26.890582
Pt   29.470949   15.630217   25.933837
Pt   28.665769   20.659134   13.700436
Pt   29.885693   18.597289   17.863620
Pt   28.333010   19.942311   19.813577
Pt   30.839142   18.851500   20.528652
Pt   30.701204   21.137551   18.843722
Pt   28.458146   17.685728   21.503226
Pt   26.826719   19.009353   23.470920
Pt   29.378378   17.927861   24.222311
Pt   29.282818   20.219973   22.505527
Pt   26.963840   16.717858   25.216483
Pt   25.378753   18.019948   27.146680
Pt   27.900347   16.974372   27.883020
Pt   27.791451   19.252169   26.193388
Pt   25.497288   15.748980   28.819598
Pt   23.917722   17.086449   30.738142
Pt   26.319622   18.289499   29.804787
Pt   27.009447   24.271568   13.834023
Pt   27.960743   24.528604   16.500182
Pt   29.743122   20.887175   16.199789
Pt   27.766975   26.767522   14.876576
Pt   28.184289   22.224934   18.160612
Pt   26.551907   23.589045   20.098134
Pt   29.146178   22.501639   20.824749
Pt   28.964860   24.817394   19.146290
Pt   26.695544   21.283932   21.762482
Pt   25.068771   22.619857   23.702988
Pt   27.639023   21.557733   24.452885
Pt   27.503026   23.842368   22.770322
Pt   25.219297   20.322912   25.416937
Pt   23.617751   21.683527   27.358346
Pt   26.184708   20.568744   28.129540
Pt   25.999311   22.883788   26.386361
Pt   23.796987   19.362122   29.062037
Pt   22.152524   20.736246   30.938776
Pt   24.708253   19.628207   31.725941
Pt   24.558425   21.946933   30.061505
Pt   18.818838   19.260666   29.217594
Pt   23.077878   21.004732   33.447602
Pt   30.222568   25.680941   15.615681
Pt   26.254663   28.204377   16.743849
Pt   28.781055   27.128128   17.459671
Pt   26.409499   25.934484   18.426319
Pt   24.826037   27.272818   20.331567
Pt   27.376833   26.189019   21.083621
Pt   27.215714   28.472502   19.409271
Pt   24.944167   24.937716   22.017458
Pt   23.340147   26.278156   23.972906
Pt   25.861810   25.178344   24.696401
Pt   25.764946   27.532796   23.000125
Pt   23.456248   23.983040   25.671334
Pt   21.855923   25.349001   27.655473
Pt   24.394457   24.275153   28.388829
Pt   24.259560   26.556711   26.706781
Pt   22.013098   23.072309   29.319407
Pt   20.412032   24.394794   31.245491
Pt   22.936706   23.315716   31.982678
Pt   22.798830   25.611575   30.315327
Pt   20.571127   22.060735   32.784348
Pt   24.674703   29.544728   18.662609
Pt   23.084792   30.825463   20.594477
Pt   28.163033   28.720513   22.075770
Pt   23.226349   28.599237   22.255956
Pt   22.432560   32.223533   25.192818
Pt   24.150372   28.844373   24.976615
Pt   21.606956   29.841137   24.210622
Pt   21.742588   27.610559   25.969325
Pt   20.142458   28.935327   27.895978
Pt   22.665798   27.874239   28.646191
Pt   22.536473   30.137662   26.949028
Pt   20.260239   26.669960   29.578228
Pt   22.167373   30.421109   17.962296
Pt   21.544310   32.028926   22.612746
Pt   19.094127   30.907801   23.466483
Pt   31.766532   16.838777   24.907687
Pt   31.628726   21.364041   21.474778
Pt   30.952526   16.565214   22.230357
Pt   30.199611   20.490355   25.207442
Pt   32.562783   19.329742   25.870739
Pt   31.760191   19.064290   23.203494
Pt   30.285505   18.164679   26.913561
Pt   28.709572   19.519621   28.858459
Pt   31.046582   20.712711   27.853253
Pt   31.218407   25.971917   18.172758
Pt   31.481740   23.695363   19.787922
Pt   29.926870   25.069370   21.832515
Pt   32.425543   23.877728   22.400164
Pt   32.152016   26.220611   20.785988
Pt   30.095808   22.791186   23.532456
Pt   28.428890   24.132731   25.482055
Pt   32.562806   21.573670   24.101369
Pt   27.353826   30.153120   26.623716
Pt   28.572522   21.821009   27.158638
Pt   26.924676   23.151948   29.073275
Pt   29.377096   22.074087   29.766522
Pt   33.159659   24.068391   25.016402
Pt   27.096233   20.834219   30.792108
Pt   25.436321   22.190836   32.613431
Pt   27.739577   23.367129   31.623952
Pt   29.736041   27.383144   20.117919
Pt   32.977879   26.306114   23.351575
Pt   28.983617   28.886979   24.742963
Pt   28.298221   26.418617   23.770184
Pt   26.656179   27.729282   25.700191
Pt   29.155121   26.683623   26.482008
Pt   30.640011   27.591499   22.780516
Pt   26.803285   25.456951   27.407768
Pt   25.195683   26.809343   29.373474
Pt   27.646415   25.662180   30.025688
Pt   24.917059   31.262344   25.928924
Pt   25.317407   24.522922   31.052145
Pt   26.562455   30.055092   23.996801
Pt   24.048200   31.118640   23.252404
Pt   27.515682   27.951619   28.338362
Pt   25.054679   29.086857   27.688235
Pt   30.934159   23.081204   26.264982
Pt   30.798400   25.377553   24.571954
Pt   33.243185   21.814383   26.668135
Pt   29.288734   24.391435   28.171971
