309
Generated with con2xyz
Pt   10.167645   20.953592   22.237799
Pt   23.192621   12.286479   15.939123
Pt   14.765265   15.587870   15.869576
Pt   12.198007   18.795122   26.121678
Pt   12.363465   19.342987   18.096667
Pt   16.224611   21.855560   16.355150
Pt   12.058363   23.424967   18.358084
Pt   12.484848   17.155010   19.993018
Pt   10.379138   19.039857   20.152877
Pt   12.633418   17.449090   15.907608
Pt   18.998791   11.717757   19.836448
Pt   14.276076   16.906396   26.144555
Pt   14.509084   15.033843   24.005673
Pt   14.393635   17.167247   22.122868
Pt   10.803033   15.032312   19.802603
Pt   22.195927   19.742322   24.533662
Pt   12.020981   20.967679   24.338447
Pt   10.511996   16.858961   21.965207
Pt   11.920263   23.123364   22.453747
Pt   14.164167   21.554576   18.284785
Pt   10.585459   19.329075   16.054903
Pt   8.696228   19.036550   18.058392
Pt   13.831523   23.131813   24.546672
Pt   14.311035   19.366091   20.194607
Pt   10.124549   23.066714   20.338365
Pt   16.223681   19.386771   22.302195
Pt   21.173935   9.896706   19.785980
Pt   15.991881   23.721065   18.493966
Pt   12.916538   13.220159   19.739962
Pt   14.627551   15.310122   19.934831
Pt   16.901428   11.364411   21.800139
Pt   14.412019   19.644169   16.147517
Pt   8.839694   16.870513   19.794856
Pt   16.480148   19.943823   14.232760
Pt   16.924447   13.765208   15.816595
Pt   10.640225   17.120396   17.832396
Pt   13.933959   20.983997   26.416335
Pt   18.712519   13.524676   22.023772
Pt   16.318623   17.198860   24.210120
Pt   24.195264   17.649994   28.438722
Pt   16.653150   13.217051   23.950568
Pt   20.673371   20.541968   10.459679
Pt   26.960926   12.398316   20.166616
Pt   16.728230   20.212671   10.438529
Pt   16.568999   17.755876   16.082117
Pt   14.666143   17.749466   14.000073
Pt   16.542673   15.331294   22.062752
Pt   20.538929   20.273276   14.472585
Pt   16.824276   15.891947   13.959935
Pt   14.507744   17.455579   18.011084
Pt   17.746020   27.985124   16.831146
Pt   16.670967   15.612521   17.955213
Pt   22.578392   15.699714   24.328407
Pt   15.977334   21.290982   24.482336
Pt   18.304597   22.162134   14.462815
Pt   10.292447   21.262131   18.109704
Pt   10.392170   18.781234   24.043251
Pt   18.055547   19.134858   28.418213
Pt   16.251777   17.003783   28.120701
Pt   15.767641   23.127842   26.631591
Pt   15.921492   20.956529   28.383156
Pt   16.356133   19.667137   18.248370
Pt   16.736731   18.042184   12.107495
Pt   14.083111   23.701949   16.409601
Pt   16.118393   21.546999   20.406849
Pt   14.646002   19.920877   12.238395
Pt   12.143562   21.253108   20.266702
Pt   13.949142   23.422324   20.476202
Pt   18.305581   19.692631   20.343940
Pt   18.220605   24.282414   12.591821
Pt   12.363851   16.876502   24.065709
Pt   14.050270   21.276531   22.396597
Pt   17.805807   23.451227   24.691047
Pt   13.728671   25.277471   22.662530
Pt   12.295076   19.065502   22.183098
Pt   23.072774   9.997408   21.855232
Pt   14.133007   18.827140   28.099892
Pt   15.904867   25.856596   16.630134
Pt   13.861102   25.572812   18.565826
Pt   13.722481   27.249305   20.742832
Pt   15.796522   25.560703   20.686878
Pt   15.711067   27.676754   18.793885
Pt   11.902424   25.197193   20.539284
Pt   15.644127   25.276996   24.748697
Pt   19.662417   29.939790   17.127817
Pt   15.578480   27.384380   22.854671
Pt   14.873956   13.445122   17.761830
Pt   20.791324   11.503547   25.890587
Pt   16.788525   13.484882   19.880375
Pt   22.971089   14.136215   18.063411
Pt   24.893082   14.143204   20.210418
Pt   17.040779   11.641894   17.705600
Pt   20.457293   15.436998   26.215049
Pt   18.827731   11.395591   23.885438
Pt   25.125418   12.308011   18.031399
Pt   16.459224   17.507293   20.137903
Pt   12.600655   14.998552   21.911775
Pt   18.290879   17.273648   26.299185
Pt   21.007740   16.596740   10.345949
Pt   18.862276   18.400277   10.327361
Pt   20.433795   22.415794   12.584111
Pt   22.997454   16.539476   12.224323
Pt   17.749816   23.116395   28.594892
Pt   19.107977   11.951749   15.775650
Pt   18.539815   17.808049   18.192567
Pt   21.209602   12.334552   13.943003
Pt   8.492937   20.947112   20.065924
Pt   20.360240   17.577236   24.319303
Pt   20.696512   13.545770   24.111188
Pt   12.291135   21.525393   16.179058
Pt   22.704540   15.998990   20.252664
Pt   22.665320   13.574054   26.191613
Pt   16.129135   19.112363   26.326310
Pt   19.123826   9.671637   21.695626
Pt   18.415545   15.162664   28.060403
Pt   20.219739   17.292755   28.362760
Pt   22.820595   13.856835   22.192949
Pt   22.362924   15.483292   28.220879
Pt   20.195253   24.325677   14.662207
Pt   18.652503   18.052837   14.187041
Pt   20.777558   18.404698   12.320791
Pt   20.089601   26.361339   12.872435
Pt   12.599283   19.624976   14.134395
Pt   20.301995   22.168757   16.548025
Pt   20.644982   18.108251   16.277198
Pt   16.140241   23.997428   14.502095
Pt   18.909547   16.204228   12.059469
Pt   24.744876   13.873431   24.282007
Pt   22.873449   16.246834   16.185362
Pt   22.363040   20.023906   20.507994
Pt   18.481015   15.368927   24.159074
Pt   18.633675   15.672865   20.086670
Pt   20.504565   17.836113   20.292092
Pt   20.832328   13.899634   20.047410
Pt   18.401189   17.530767   22.236296
Pt   16.438881   15.085506   26.098047
Pt   18.589426   13.243418   26.024987
Pt   28.033211   22.260552   24.970464
Pt   14.167132   19.082930   24.280956
Pt   14.738664   13.172124   21.848102
Pt   24.836007   18.708301   12.435295
Pt   19.016156   14.068817   13.905075
Pt   18.524246   22.351876   10.583077
Pt   22.465134   22.672712   10.730486
Pt   18.071630   24.034018   16.571527
Pt   14.324100   21.817621   14.270429
Pt   18.433619   19.968833   16.333646
Pt   24.142415   24.396095   18.806348
Pt   18.199550   21.853893   18.459678
Pt   17.963107   23.699981   20.620202
Pt   22.021361   24.053650   20.780863
Pt   20.060325   24.027459   18.673764
Pt   18.062842   21.570011   22.505418
Pt   21.901973   23.778079   24.861042
Pt   24.119523   19.760821   26.647739
Pt   17.478476   27.408725   24.968226
Pt   19.885235   21.299670   28.630224
Pt   25.976756   21.957935   26.896155
Pt   21.701277   23.437594   28.753247
Pt   19.567748   25.235944   28.729346
Pt   15.866425   23.434770   22.604538
Pt   21.957479   26.194066   18.866228
Pt   20.321637   24.471167   10.847991
Pt   17.569370   27.765684   20.903787
Pt   22.184545   24.370606   16.725978
Pt   17.992101   26.146281   14.702988
Pt   17.832724   25.878138   18.720370
Pt   17.701496   25.586286   22.810008
Pt   19.594078   27.678271   22.981417
Pt   21.550100   30.026663   19.204783
Pt   17.583773   25.285450   26.835099
Pt   19.487958   29.801104   21.112408
Pt   19.471650   27.360293   26.959883
Pt   19.687243   25.599756   24.910124
Pt   24.975559   12.025742   22.128031
Pt   22.050090   26.492273   14.864309
Pt   17.650904   29.700569   18.967576
Pt   19.864923   28.202080   14.986023
Pt   17.511846   29.408772   23.093425
Pt   21.846590   28.313897   17.007104
Pt   21.298969   10.313762   15.838226
Pt   24.403151   17.854291   24.544493
Pt   23.213268   10.274233   17.885460
Pt   18.757107   15.913939   16.025381
Pt   25.100849   10.359822   19.955882
Pt   17.227070   9.708314   19.638792
Pt   15.052272   11.415485   19.684421
Pt   12.741867   15.266140   17.813240
Pt   21.111452   14.450602   12.094307
Pt   22.825367   18.726691   10.490478
Pt   20.981772   14.099823   15.981021
Pt   25.044603   14.427622   16.141275
Pt   20.883258   16.227388   14.123736
Pt   20.406885   19.997357   18.411684
Pt   18.850785   13.803662   17.899255
Pt   20.742260   15.975532   18.135529
Pt   30.485008   16.693301   20.610960
Pt   20.556690   13.368466   27.928459
Pt   24.659717   15.985073   22.397631
Pt   23.009855   12.045896   19.998636
Pt   24.479109   15.737464   26.427022
Pt   21.073989   12.022117   17.901273
Pt   22.903617   11.728587   24.051714
Pt   28.235477   20.359506   22.793909
Pt   22.619660   20.577591   12.530379
Pt   16.392112   22.120266   12.378106
Pt   26.620088   18.420724   18.502020
Pt   18.595126   20.244857   12.372621
Pt   23.089226   14.401079   14.067008
Pt   24.610669   20.595862   14.543428
Pt   27.038777   23.553799   12.335728
Pt   24.716449   18.415466   16.402096
Pt   22.514538   20.306023   16.488288
Pt   20.024494   21.581030   24.581643
Pt   28.774826   16.590042   18.474438
Pt   28.481110   18.486590   20.653782
Pt   24.284311   20.044487   22.638735
Pt   19.788986   23.435302   26.746722
Pt   22.607249   18.137304   18.353821
Pt   21.952231   21.595374   26.727597
Pt   24.061790   21.948531   24.814044
Pt   17.957494   21.272923   26.562650
Pt   26.555192   16.012303   24.498891
Pt   23.866402   21.598368   28.702162
Pt   28.061380   20.082833   26.751101
Pt   26.624708   20.901875   12.683031
Pt   22.280576   24.623668   12.741648
Pt   22.428534   22.497488   14.620689
Pt   24.487881   22.811188   12.675000
Pt   28.547865   20.863772   14.833797
Pt   24.361745   22.521418   16.682984
Pt   24.615597   20.858402   10.751826
Pt   22.264566   22.196028   18.622170
Pt   23.886763   26.219116   21.006042
Pt   20.265364   19.718519   22.424923
Pt   20.166743   21.877848   20.559060
Pt   21.810873   25.896080   22.985372
Pt   23.740609   25.920659   25.077326
Pt   22.052113   19.459159   28.579351
Pt   27.939148   24.401924   23.096035
Pt   20.119609   19.433358   26.538234
Pt   25.635327   28.274303   21.221142
Pt   22.285907   17.598338   26.463071
Pt   28.773290   14.528843   20.388868
Pt   19.798494   25.832919   20.839389
Pt   19.958689   26.179871   16.786085
Pt   24.256570   24.695954   14.799007
Pt   23.457023   29.986371   21.262667
Pt   26.042922   24.394364   20.955151
Pt   22.121450   21.909819   22.668083
Pt   24.029817   26.521347   16.948037
Pt   19.397405   29.382781   25.075263
Pt   19.728636   27.962829   18.975212
Pt   21.572188   27.735098   25.114205
Pt   19.922515   23.735177   22.735923
Pt   21.661225   25.616765   26.994464
Pt   23.782979   28.343929   19.099256
Pt   21.676613   27.984785   21.058015
Pt   21.415775   29.747975   23.166768
Pt   21.023063   9.763039   23.746957
Pt   24.533422   18.152873   20.468348
Pt   26.716407   16.287451   20.430357
Pt   20.933179   11.746242   21.932851
Pt   19.262041   9.946272   17.726884
Pt   26.961668   14.440648   18.255800
Pt   20.598047   15.700104   22.207974
Pt   26.808480   14.156895   22.339950
Pt   30.311900   18.530687   22.721645
Pt   30.339140   20.898447   16.932559
Pt   24.950077   16.556917   14.283287
Pt   24.437184   20.328547   18.567242
Pt   30.304547   20.651820   20.878661
Pt   22.777759   18.390933   14.346193
Pt   24.812341   16.265458   18.281701
Pt   26.299099   20.342626   20.685318
Pt   28.611621   16.313311   22.567660
Pt   30.012787   20.374035   24.808908
Pt   28.401406   20.633341   18.775624
Pt   24.193883   22.221492   20.726906
Pt   28.372885   18.181934   24.702364
Pt   29.981921   22.494226   22.978285
Pt   26.315901   17.885296   26.625895
Pt   18.186043   19.414587   24.367087
Pt   25.993518   19.788075   28.572426
Pt   26.473135   22.745084   14.817839
Pt   28.389448   22.811262   16.894057
Pt   26.867686   16.572263   16.358958
Pt   28.694184   18.723944   16.603673
Pt   25.957810   26.536809   19.060218
Pt   28.147081   22.507128   20.910159
Pt   26.232769   24.734227   16.863631
Pt   23.809734   23.777691   26.959253
Pt   23.982136   24.096313   22.928100
Pt   26.787180   25.321616   14.230976
Pt   26.457459   18.146624   22.623899
Pt   26.115944   22.253374   22.891255
Pt   27.781916   26.456627   21.174326
Pt   25.802017   26.240427   23.133986
Pt   28.110588   24.689475   19.009124
Pt   26.282446   22.552955   18.748763
Pt   22.460911   17.856761   22.404703
Pt   26.538932   20.595868   16.652806
Pt   30.472115   18.796887   18.766510
Pt   29.832288   24.592619   21.130172
Pt   26.774373   18.738935   14.503277
Pt   26.221027   20.062027   24.763048
Pt   30.155914   22.761718   19.035279
Pt   23.637602   28.048143   23.189395
Pt   25.881563   24.105969   25.031455
