309
Generated with con2xyz
Pt   22.974291   19.664842   11.577065
Pt   22.675899   19.691419   14.259473
Pt   22.360212   19.717427   17.118784
Pt   22.044344   19.758537   19.981510
Pt   21.725906   19.792999   22.863949
Pt   21.407985   19.831631   25.735193
Pt   21.094724   19.870710   28.594947
Pt   20.799805   19.907397   31.275802
Pt   25.048853   20.629226   13.120864
Pt   24.776095   20.671797   15.887227
Pt   24.440886   20.691563   18.766859
Pt   24.125846   20.732041   21.659889
Pt   23.802339   20.768218   24.555404
Pt   23.500815   20.814511   27.440138
Pt   23.162350   20.838345   30.200691
Pt   22.625860   22.094950   12.837903
Pt   22.314531   22.161721   15.600500
Pt   21.994078   22.181690   18.480309
Pt   21.676871   22.217048   21.370719
Pt   21.357879   22.251375   24.265547
Pt   21.040879   22.309555   27.146502
Pt   20.741541   22.308143   29.910664
Pt   20.483229   20.229907   12.621656
Pt   20.139170   20.262731   15.384194
Pt   19.836859   20.290577   18.267202
Pt   19.514685   20.331322   21.155329
Pt   19.199444   20.368973   24.047205
Pt   18.867723   20.416601   26.930328
Pt   18.600792   20.444517   29.699923
Pt   21.581737   17.603692   12.778121
Pt   21.253140   17.592579   15.546149
Pt   20.951568   17.626730   18.431052
Pt   20.630609   17.672296   21.298643
Pt   20.314471   17.712392   24.196436
Pt   19.989551   17.738042   27.078951
Pt   21.429481   15.903846   28.686576
Pt   24.408986   17.853107   13.083815
Pt   24.120101   17.845087   15.854621
Pt   23.784890   17.868141   18.740468
Pt   23.468755   17.918002   21.616653
Pt   23.149127   17.956852   24.514102
Pt   22.845365   17.985507   27.395341
Pt   17.456368   18.326033   28.228180
Pt   27.127957   21.599733   14.792750
Pt   26.850562   21.642143   17.559930
Pt   26.513607   21.665954   20.444081
Pt   26.195705   21.704497   23.349235
Pt   25.891554   21.749219   26.239511
Pt   25.556122   21.773881   29.002152
Pt   24.724994   23.108097   14.429605
Pt   24.417577   23.149881   17.244390
Pt   24.075163   23.154917   20.141477
Pt   23.756250   23.188977   23.071223
Pt   23.454609   23.258487   25.976938
Pt   23.139790   23.286459   28.792619
Pt   22.259605   24.543899   14.218942
Pt   21.947853   24.612683   16.983231
Pt   21.622941   24.639156   19.872989
Pt   21.313524   24.662282   22.766825
Pt   20.991166   24.720984   25.653681
Pt   20.692749   24.724101   28.419878
Pt   20.090744   22.701656   13.922961
Pt   19.769129   22.742074   16.737869
Pt   19.470928   22.762314   19.646913
Pt   19.148457   22.797225   22.568353
Pt   18.806361   22.864861   25.463958
Pt   18.507917   22.886508   28.282432
Pt   17.962467   20.805790   13.785365
Pt   17.621705   20.835278   16.550077
Pt   17.320424   20.863588   19.439523
Pt   16.999414   20.903225   22.343101
Pt   16.666118   20.946959   25.230561
Pt   16.394035   20.971960   28.002756
Pt   19.036172   18.149371   13.859920
Pt   18.709550   18.160132   16.681430
Pt   18.426522   18.199686   19.580234
Pt   18.103834   18.244858   22.498970
Pt   17.758249   18.281785   25.406322
Pt   19.700794   17.811735   29.850152
Pt   20.163318   15.527199   14.099713
Pt   19.833055   15.510924   16.886650
Pt   19.536146   15.525758   19.746116
Pt   19.229305   15.605525   22.622872
Pt   18.905753   15.627796   25.524362
Pt   18.608163   15.704831   28.303268
Pt   23.015105   15.737402   14.324772
Pt   22.691514   15.731812   17.151062
Pt   22.369844   15.756445   20.076839
Pt   22.050265   15.829780   22.953020
Pt   21.743706   15.829937   25.861136
Pt   23.187616   14.032784   27.474532
Pt   25.851870   16.038013   14.706058
Pt   25.556886   16.030104   17.480147
Pt   25.205484   16.035085   20.385351
Pt   24.887112   16.103368   23.263842
Pt   24.264980   16.200233   28.929499
Pt   22.517163   18.056144   30.160050
Pt   26.532666   18.804172   14.681158
Pt   26.225553   18.826800   17.497683
Pt   25.866591   18.854511   20.393416
Pt   25.545265   18.900918   23.322428
Pt   25.259398   18.931781   26.230311
Pt   24.939052   18.976732   29.047830
Pt   29.201798   22.566801   16.478443
Pt   28.924900   22.612119   19.265806
Pt   30.016632   20.795294   23.757575
Pt   28.291587   22.682397   25.005974
Pt   27.950654   22.704754   27.787397
Pt   26.810537   24.076974   16.094961
Pt   26.489437   24.122183   18.919476
Pt   26.129961   24.103480   21.840002
Pt   25.845713   24.193511   24.771382
Pt   25.540819   24.219078   27.599887
Pt   24.354935   25.562496   15.803777
Pt   24.051806   25.598434   18.631439
Pt   23.694276   25.581429   21.552241
Pt   23.411772   25.667241   24.481540
Pt   23.085378   25.703206   27.307049
Pt   21.893967   26.991248   15.610018
Pt   21.575491   27.066731   18.396401
Pt   21.232886   27.123015   21.276929
Pt   23.349152   28.050455   22.926760
Pt   20.634200   27.140014   26.912929
Pt   19.727486   25.155342   15.296528
Pt   19.398872   25.189569   18.125075
Pt   19.113381   25.215190   21.077116
Pt   18.753379   25.292895   23.958101
Pt   18.461874   25.316582   26.795930
Pt   17.559051   23.271646   15.082855
Pt   17.250123   23.313786   17.908693
Pt   16.974759   23.306376   20.840330
Pt   16.606874   23.390956   23.763547
Pt   16.291249   23.405013   26.596289
Pt   15.438128   21.375400   14.968911
Pt   15.095377   21.406393   17.752375
Pt   14.777128   21.438428   20.623860
Pt   14.461714   21.473190   23.495826
Pt   14.189759   21.495093   26.287486
Pt   16.514508   18.734966   15.013804
Pt   16.200750   18.733966   17.850235
Pt   15.938851   18.787555   20.782374
Pt   15.555352   18.811359   23.704517
Pt   15.244177   18.860744   26.532285
Pt   17.623222   16.060574   15.171539
Pt   17.302049   16.062761   18.029831
Pt   17.032398   16.119677   20.909944
Pt   16.671420   16.177723   23.848841
Pt   16.367961   16.214495   26.685205
Pt   20.249625   11.635081   16.997338
Pt   18.370944   13.337985   18.177207
Pt   18.144568   13.440915   21.067450
Pt   16.960448   11.434204   19.709766
Pt   16.446186   11.603959   25.180117
Pt   21.581809   13.654619   15.630327
Pt   21.243112   13.646297   18.499735
Pt   20.942644   13.641216   21.427231
Pt   20.661423   13.703831   24.264595
Pt   20.322738   13.775821   27.142949
Pt   24.471228   13.927075   15.926354
Pt   24.131374   13.937404   18.764168
Pt   23.792846   13.936917   21.775272
Pt   23.490479   13.960488   24.600462
Pt   24.935074   12.284684   26.219862
Pt   27.291667   14.221027   16.347342
Pt   24.464316   10.135752   18.917237
Pt   26.641501   14.185876   22.045776
Pt   24.585515   16.121111   26.160481
Pt   26.021992   14.342308   27.692058
Pt   27.972995   16.975715   16.309999
Pt   27.654623   17.005735   19.140137
Pt   27.261928   17.040921   22.053442
Pt   27.001155   17.075933   24.988100
Pt   26.683560   17.112256   27.816497
Pt   28.614095   19.778394   16.347701
Pt   28.299671   19.793214   19.174524
Pt   27.910596   19.835217   22.090879
Pt   27.651803   19.864766   25.026752
Pt   27.336479   19.917392   27.853755
Pt   31.231238   23.519069   18.206317
Pt   31.058656   23.607555   20.977926
Pt   30.750503   23.638947   23.776003
Pt   30.314667   23.616760   26.520629
Pt   28.882635   25.046948   17.770130
Pt   28.609565   22.646888   22.134912
Pt   28.220929   25.100342   23.502826
Pt   27.932614   25.151185   26.394274
Pt   26.444654   26.542670   17.485899
Pt   26.114782   26.566023   20.364140
Pt   25.801753   26.600452   23.216648
Pt   25.499208   26.647840   26.099194
Pt   23.991638   28.008580   17.189382
Pt   23.662309   28.015033   20.078624
Pt   25.746651   28.998264   21.736535
Pt   23.052463   28.110807   25.817552
Pt   21.534837   29.397892   17.044289
Pt   21.211785   29.587943   19.805331
Pt   20.670265   29.456073   25.381195
Pt   22.974695   30.359784   24.235882
Pt   19.360370   27.594301   16.674844
Pt   18.696946   27.777430   22.475175
Pt   18.685442   29.970955   20.836617
Pt   18.424018   27.697960   25.281519
Pt   17.185136   25.735204   16.473125
Pt   16.877345   25.757547   19.353148
Pt   16.577134   25.795970   22.204298
Pt   16.240624   25.831056   25.113584
Pt   15.037572   23.842990   16.257582
Pt   14.749566   23.862714   19.148791
Pt   14.438769   23.893971   21.999361
Pt   14.087544   23.930884   24.889442
Pt   12.949063   21.931567   16.207238
Pt   12.506163   21.988578   18.952471
Pt   12.197072   22.012923   21.750524
Pt   12.030604   22.011088   24.527524
Pt   13.992284   19.298424   16.192678
Pt   13.708608   19.311539   19.088887
Pt   13.392077   19.342195   21.939229
Pt   13.039845   19.381996   24.824728
Pt   15.095461   16.655143   16.330414
Pt   14.799317   16.660725   19.243285
Pt   14.478104   16.701676   22.092853
Pt   14.141229   16.739457   24.969303
Pt   18.766654   13.492526   15.453563
Pt   15.853715   13.944748   19.328178
Pt   17.836793   13.523159   23.925792
Pt   17.521601   13.594636   26.752400
Pt   21.690993   9.928961   18.619242
Pt   14.557349   12.027629   20.836859
Pt   16.722735   11.412858   22.435665
Pt   15.271856   14.124339   25.137913
Pt   19.226654   11.769592   25.544885
Pt   19.791801   11.511116   19.822585
Pt   19.569443   11.559099   22.713078
Pt   30.038954   13.475628   25.231957
Pt   23.053377   11.851344   17.228374
Pt   22.712858   11.906150   20.145547
Pt   21.381559   9.906177   21.374575
Pt   22.072923   12.023890   25.920057
Pt   26.993046   14.213223   19.142357
Pt   25.549296   12.166109   20.458465
Pt   27.735504   12.586653   26.387569
Pt   24.151007   10.105134   21.686844
Pt   28.690013   12.429306   18.041395
Pt   27.223656   10.423899   19.252776
Pt   25.904452   12.112665   17.555326
Pt   26.324830   14.266431   24.869581
Pt   29.409505   15.155658   17.950115
Pt   29.043981   15.191225   20.839419
Pt   28.721786   15.221892   23.684387
Pt   28.439737   15.262052   26.576385
Pt   30.057746   17.942550   17.998025
Pt   29.714430   17.970657   20.874801
Pt   29.395155   18.002380   23.725266
Pt   29.097261   18.044320   26.607203
Pt   30.686914   20.741159   18.024771
Pt   30.334288   20.762997   20.907904
Pt   31.967184   21.725594   25.344870
Pt   29.730294   20.844123   26.649770
Pt   28.534555   25.066771   20.653699
Pt   30.523411   26.036856   22.304664
Pt   30.186365   25.992680   25.093118
Pt   28.450029   27.414897   19.207322
Pt   28.177637   27.528279   22.024450
Pt   27.830738   27.482516   24.835399
Pt   26.013677   28.890264   18.919455
Pt   30.800823   25.928533   19.511228
Pt   25.394919   28.959186   24.543426
Pt   23.614501   30.287494   18.654975
Pt   23.329464   30.386474   21.459422
Pt   20.890493   29.597218   22.610994
Pt   19.039550   27.605777   19.575876
Pt   19.029670   29.881632   18.119265
Pt   20.940433   27.126033   24.118656
Pt   16.888477   28.091721   17.921675
Pt   16.528081   28.191836   20.741959
Pt   16.212558   28.078737   23.575429
Pt   14.735965   26.219734   17.710561
Pt   14.379245   26.321235   20.521967
Pt   14.111671   26.273039   23.348031
Pt   12.667389   24.348385   17.533421
Pt   12.319576   24.444919   20.321644
Pt   12.052390   24.396856   23.119035
Pt   11.632958   19.842754   17.469889
Pt   11.259193   19.814985   20.254258
Pt   11.016492   19.890803   23.054474
Pt   12.666220   17.252691   17.589680
Pt   12.292667   17.221929   20.399544
Pt   12.051907   17.300201   23.221358
Pt   13.772039   14.706316   17.713293
Pt   13.413222   14.596217   20.543942
Pt   13.167286   14.671509   23.367203
Pt   16.216233   14.091768   16.519122
Pt   14.308810   12.114753   23.559611
Pt   15.621035   14.082323   22.236446
Pt   22.400092   11.773146   23.095643
Pt   26.898404   10.396555   21.991479
Pt   25.238372   12.041199   23.403119
Pt   30.702026   13.447390   19.657523
Pt   28.086144   12.365051   23.632199
Pt   28.467553   12.336932   20.821625
Pt   30.432369   13.438511   22.468863
Pt   31.132705   16.151174   22.499647
Pt   30.736906   16.205234   25.296110
Pt   31.371745   16.149236   19.682493
Pt   31.775646   18.929725   22.536376
Pt   31.381489   18.991506   25.337728
Pt   32.586544   21.664084   19.762481
Pt   32.010225   18.929220   19.714476
Pt   32.350643   21.662319   22.562700
