309
Generated with con2xyz
Pt   25.762953   21.463843   13.070528
Pt   23.468430   20.739800   11.564580
Pt   20.911484   20.160437   18.624696
Pt   20.844728   22.676725   22.932222
Pt   24.775076   14.245629   26.003225
Pt   20.483466   16.329063   27.336652
Pt   22.891713   21.009703   28.705579
Pt   20.519844   20.345017   29.958571
Pt   23.555297   30.460483   17.182635
Pt   23.526996   23.231106   12.890383
Pt   25.992314   16.836517   20.296393
Pt   23.532086   25.702532   14.273584
Pt   23.114680   20.916118   23.028224
Pt   23.057877   23.456353   27.302171
Pt   20.712519   20.249834   24.387597
Pt   21.188060   20.029225   10.178061
Pt   21.132404   22.558623   14.239927
Pt   21.009212   20.117746   15.749746
Pt   20.814774   20.205297   21.510129
Pt   20.961838   25.092740   21.456742
Pt   20.742860   22.741608   25.823578
Pt   20.647583   22.747528   28.603919
Pt   21.216227   22.475160   11.458022
Pt   16.395100   21.779377   15.533472
Pt   18.655601   20.966429   17.080894
Pt   18.559205   21.007984   19.978096
Pt   18.464749   23.562469   24.317587
Pt   18.347278   21.111600   25.770027
Pt   18.288833   21.147017   28.553190
Pt   19.661502   18.132795   11.484360
Pt   23.842465   16.065565   13.077122
Pt   19.457594   18.199596   17.160486
Pt   20.678909   12.281718   18.751579
Pt   19.353670   18.234679   20.049449
Pt   16.797686   19.192847   27.165645
Pt   19.078183   18.407155   28.614218
Pt   22.511021   18.053030   11.570625
Pt   20.979499   16.101831   12.920064
Pt   24.776568   18.782821   15.834172
Pt   15.629757   17.089851   17.055210
Pt   19.148940   18.329019   25.831185
Pt   22.138014   18.203988   23.042177
Pt   20.612588   20.300980   27.261574
Pt   24.845056   18.745223   13.002217
Pt   30.732952   18.186031   17.502992
Pt   26.944402   19.544522   20.292332
Pt   23.222605   20.870219   20.128078
Pt   28.159507   17.599631   24.737723
Pt   25.281082   21.688726   27.328593
Pt   23.365622   23.299373   18.643780
Pt   25.699715   24.018428   20.168873
Pt   23.459234   23.288248   15.728973
Pt   28.138695   24.745745   18.782562
Pt   23.173154   25.881251   25.845375
Pt   23.024763   20.973624   25.925027
Pt   21.100615   20.073681   12.876036
Pt   25.577147   26.555332   24.470207
Pt   16.439873   29.162545   22.626378
Pt   20.946512   22.635816   20.033470
Pt   23.280510   25.835399   23.005470
Pt   20.775873   25.165582   27.137010
Pt   18.862312   23.362470   12.731236
Pt   18.763637   23.418033   15.564972
Pt   18.580184   23.481959   21.412138
Pt   18.676336   23.437447   18.483707
Pt   16.119942   24.408640   25.623834
Pt   18.382710   23.595349   27.150325
Pt   16.518648   24.219193   14.073849
Pt   15.732129   17.047402   14.169552
Pt   10.421448   21.524636   16.872474
Pt   16.218367   21.851989   21.332827
Pt   18.458524   21.049910   22.874844
Pt   16.049392   21.962991   27.028168
Pt   19.543378   18.146240   14.266597
Pt   13.414042   17.930439   15.525445
Pt   13.107922   18.066399   24.201167
Pt   16.308556   21.824084   18.435633
Pt   13.943979   15.361703   24.183825
Pt   16.874383   19.134925   24.329075
Pt   17.170323   19.001113   15.585393
Pt   14.309311   15.244645   15.653832
Pt   15.520653   17.084223   19.920514
Pt   19.255800   18.288455   22.931177
Pt   19.196320   10.425837   20.167036
Pt   17.628259   16.449569   27.137722
Pt   17.664226   12.472715   24.343524
Pt   18.865738   20.868323   11.405172
Pt   22.241818   18.158280   20.145321
Pt   23.577957   16.180788   21.678380
Pt   20.671766   16.239969   21.582429
Pt   23.351444   16.287991   27.373814
Pt   25.167911   14.069228   14.605109
Pt   19.421406   14.188017   14.343157
Pt   22.119691   14.265992   20.203477
Pt   27.401198   14.773209   18.903643
Pt   22.044270   18.244317   25.942572
Pt   21.925703   18.322534   28.722802
Pt   28.004026   22.184916   14.596296
Pt   22.218152   14.156030   17.261267
Pt   20.775691   16.196756   18.667828
Pt   24.555987   18.868944   21.674905
Pt   23.471870   16.213766   24.590533
Pt   24.351650   18.969901   27.430120
Pt   28.370907   17.513788   18.857840
Pt   25.505622   21.584069   21.635452
Pt   25.743749   26.437180   18.691390
Pt   28.272234   17.560168   21.869932
Pt   27.671019   22.376541   25.935616
Pt   27.490289   14.735928   16.018874
Pt   23.420960   20.795686   14.348962
Pt   16.607429   29.077393   16.962303
Pt   23.342135   25.730445   20.063670
Pt   25.468367   24.133293   25.919957
Pt   21.230039   24.942160   12.855942
Pt   25.579937   24.102918   23.068533
Pt   25.644539   21.548471   18.745659
Pt   21.189506   30.021496   18.518757
Pt   25.624313   28.886312   22.920699
Pt   16.204292   24.380650   22.771179
Pt   21.043116   22.587648   17.137465
Pt   23.319151   20.828547   17.244032
Pt   23.379449   28.222786   21.458766
Pt   20.865195   25.157292   24.355041
Pt   11.887447   23.433271   15.508505
Pt   21.058965   25.045943   18.540683
Pt   18.812960   28.322083   18.443146
Pt   20.899807   27.584817   25.650305
Pt   18.517283   26.020121   25.692342
Pt   16.526195   21.723954   12.751339
Pt   17.285727   18.959795   12.750775
Pt   16.341863   26.771107   21.246707
Pt   11.572685   23.564690   21.114432
Pt   13.877007   22.741727   22.668145
Pt   16.424287   24.277060   16.919057
Pt   11.847622   25.952393   19.570889
Pt   11.629683   23.485597   23.894929
Pt   17.990702   16.238958   15.717110
Pt   12.440009   20.779727   21.210888
Pt   12.608987   20.693496   15.417722
Pt   12.537946   20.725104   18.349966
Pt   14.559225   20.023926   25.656831
Pt   16.994740   19.078896   21.407100
Pt   12.311612   20.813326   24.118708
Pt   16.398069   14.273347   17.163401
Pt   14.064638   15.211362   18.481845
Pt   26.443051   12.024127   18.959967
Pt   17.961100   12.336553   15.835976
Pt   16.211711   14.359475   22.859442
Pt   14.937141   19.822013   14.084251
Pt   17.700177   16.374384   24.337110
Pt   19.021425   14.370629   25.872231
Pt   21.925301   14.296435   25.998405
Pt   17.780759   12.291682   18.654487
Pt   25.096713   14.083663   17.412024
Pt   18.115962   16.223466   12.921520
Pt   16.603393   14.344938   14.402022
Pt   17.769399   16.302102   21.459619
Pt   20.579259   16.263176   24.502793
Pt   22.325453   14.114798   14.416410
Pt   25.025936   14.126084   20.306385
Pt   24.882816   10.271346   17.542101
Pt   22.013328   14.247262   23.150091
Pt   25.775278   16.917684   26.089543
Pt   24.665169   18.829786   18.756630
Pt   22.442666   18.065810   14.353510
Pt   24.896682   14.171603   23.198226
Pt   20.779855   12.201734   15.840478
Pt   26.174479   12.237040   24.575121
Pt   23.773838   16.080518   15.861858
Pt   22.343037   18.118365   17.250936
Pt   26.102323   16.785149   17.349275
Pt   24.469916   18.914318   24.596813
Pt   26.742773   19.654318   26.072209
Pt   27.301168   14.817158   21.845179
Pt   26.174026   16.740195   14.500372
Pt   31.593943   20.831474   17.631037
Pt   27.190787   14.866420   24.730181
Pt   33.996303   17.034236   20.571234
Pt   32.914455   18.912883   19.058850
Pt   31.640392   20.964056   20.431895
Pt   27.934933   22.311351   20.249505
Pt   27.794961   22.331279   23.116486
Pt   29.986612   22.936820   24.524566
Pt   30.302577   22.871130   18.968632
Pt   29.322438   20.231679   18.903535
Pt   23.294885   28.299720   24.363327
Pt   21.148647   25.020708   15.638090
Pt   25.780842   23.997022   17.271359
Pt   23.530660   30.560461   19.990785
Pt   23.387315   30.547973   22.798517
Pt   18.940072   30.603179   17.037439
Pt   25.717897   21.520892   15.870703
Pt   27.841263   24.788508   24.486591
Pt   25.795599   28.801443   17.258144
Pt   20.985242   27.578721   22.848269
Pt   18.586453   25.976422   22.846146
Pt   25.770092   28.906606   20.088044
Pt   21.106187   30.063402   21.332499
Pt   25.832409   26.428524   15.777555
Pt   18.775758   30.685248   22.655175
Pt   16.531339   26.708328   15.493044
Pt   18.637000   28.437478   24.214275
Pt   21.166415   27.489078   17.075705
Pt   18.715239   25.873388   19.910321
Pt   18.722697   28.362152   21.307659
Pt   16.253711   26.832233   24.167539
Pt   18.883581   25.839583   14.130386
Pt   14.826276   19.847676   16.936669
Pt   14.054782   22.647627   16.909672
Pt   13.897287   25.200022   24.068626
Pt   14.192829   22.594932   14.103255
Pt   14.110086   27.577306   19.741405
Pt   14.787657   19.894777   19.840898
Pt   10.234137   21.603985   22.496670
Pt   13.886018   25.217010   21.247149
Pt   15.429872   17.161552   22.831083
Pt   13.231045   18.029581   21.272398
Pt   15.349539   17.222008   25.706533
Pt   11.838488   16.137011   19.925355
Pt   13.947448   22.718357   19.809560
Pt   13.971991   15.204997   21.348513
Pt   10.968191   18.896633   22.584751
Pt   17.878499   16.259913   18.590114
Pt   14.186349   25.083711   15.420802
Pt   17.108375   19.045473   18.502645
Pt   19.112133   14.312616   23.002111
Pt   10.989742   18.819797   19.747438
Pt   30.943705   13.587254   19.118639
Pt   19.169596   14.272596   20.103055
Pt   11.793479   16.220973   22.676444
Pt   19.312550   14.222521   17.208607
Pt   23.647567   12.118059   15.942625
Pt   19.107581   10.543424   22.985377
Pt   20.477361   12.340911   24.534656
Pt   20.880774   16.127556   15.752531
Pt   23.437599   12.239639   21.716955
Pt   20.578074   12.327877   21.618451
Pt   28.769798   12.835953   17.606613
Pt   19.308712   10.447859   17.347346
Pt   31.983507   16.188709   19.057152
Pt   22.099160   10.315714   17.433396
Pt   23.345865   12.254843   24.628273
Pt   24.777219   10.240735   20.359523
Pt   28.461577   17.474903   15.988731
Pt   26.343786   12.067427   21.811944
Pt   24.684257   10.360086   23.174838
Pt   29.405696   20.176070   16.030907
Pt   31.881901   16.232941   21.961622
Pt   28.712338   12.771924   20.452634
Pt   30.534250   18.272195   23.357902
Pt   28.041094   24.799024   21.656756
Pt   27.152007   19.484370   14.494271
Pt   29.249007   20.278584   21.812092
Pt   25.898610   16.870545   23.241446
Pt   32.807778   18.957375   21.942993
Pt   25.653856   26.485872   21.558617
Pt   27.067731   19.518604   17.343217
Pt   25.413026   21.648621   24.545999
Pt   23.467104   25.739377   17.123042
Pt   27.809560   27.159004   23.008678
Pt   23.260451   23.347957   21.559565
Pt   29.126699   20.315866   24.698492
Pt   21.269997   29.834732   15.745093
Pt   23.168742   23.423513   24.470936
Pt   25.834560   23.952823   14.393025
Pt   18.900293   28.307511   15.541251
Pt   21.075202   27.533400   19.961886
Pt   28.029260   24.698007   15.937206
Pt   23.556495   28.166053   15.687456
Pt   23.467797   28.176832   18.593292
Pt   21.248181   27.409564   14.275050
Pt   16.443277   26.739076   18.383535
Pt   21.019776   29.962269   24.112098
Pt   18.782450   25.884439   16.971348
Pt   14.255882   27.472764   16.906798
Pt   16.326640   24.282571   19.877645
Pt   27.951352   27.166845   20.180394
Pt   18.796501   30.702180   19.844345
Pt   16.461306   29.181236   19.790020
Pt   14.106557   25.116473   18.335395
Pt   11.159448   18.900072   16.898965
Pt   14.158846   27.582552   22.591873
Pt   10.262622   21.528745   19.695290
Pt   11.983819   25.858674   16.834661
Pt   13.803422   22.783131   25.480554
Pt   18.738322   20.926228   14.185531
Pt   14.649250   19.955391   22.806870
Pt   16.111122   21.927510   24.242097
Pt   11.647440   23.523754   18.293212
Pt   17.678683   12.340942   21.513814
Pt   16.213920   14.528484   25.612908
Pt   13.236188   17.892027   18.351656
Pt   16.291867   14.318228   19.996114
Pt   23.538585   12.194428   18.850614
Pt   21.992082   10.276433   20.265041
Pt   21.898824   10.407782   23.095075
Pt   23.681070   16.138598   18.773373
Pt   26.464826   12.108742   16.187896
Pt   30.846840   13.628963   21.909291
Pt   28.573582   12.921268   23.292765
Pt   29.764590   15.473511   17.505983
Pt   29.635829   15.547594   20.439891
Pt   26.859580   19.590458   23.225019
Pt   30.209943   22.954597   21.774352
Pt   28.103802   22.287414   17.346824
Pt   29.563198   15.561540   23.379278
Pt   31.430692   20.963223   23.270145
Pt   30.650245   18.229666   20.430682
Pt   27.982185   27.073904   17.355212
