309
Generated with con2xyz
Pt   22.479658   20.564584   11.674195
Pt   22.338286   20.399127   14.362406
Pt   22.188822   20.223093   17.226031
Pt   22.039941   20.053661   20.100728
Pt   21.890419   19.873457   22.989730
Pt   21.745071   19.689293   25.877333
Pt   21.597739   19.505715   28.814587
Pt   23.101349   17.551319   30.008268
Pt   24.651644   21.395444   13.158351
Pt   24.543184   21.239908   15.930651
Pt   24.377947   21.054261   18.817189
Pt   24.231637   20.878174   21.719782
Pt   24.077913   20.691778   24.620282
Pt   23.935592   20.512603   27.508665
Pt   23.701423   22.880596   29.072366
Pt   22.240556   22.902293   13.126402
Pt   22.093732   22.772428   15.897975
Pt   21.944500   22.579299   18.784433
Pt   21.793945   22.405078   21.688857
Pt   21.645159   22.217739   24.591437
Pt   21.498506   22.041362   27.478525
Pt   21.359865   21.862045   30.198829
Pt   20.064211   21.081142   12.899473
Pt   19.880824   20.915477   15.670435
Pt   19.746348   20.729514   18.557710
Pt   19.593857   20.554752   21.457837
Pt   19.450456   20.373881   24.359127
Pt   19.302104   20.200486   27.250475
Pt   19.170801   20.030347   29.972456
Pt   21.136037   18.431706   12.803415
Pt   20.968301   18.220809   15.575430
Pt   20.832058   18.053157   18.461030
Pt   20.680333   17.877667   21.341599
Pt   20.537634   17.702704   24.236454
Pt   20.386676   17.524524   27.127142
Pt   21.888517   15.536926   28.496178
Pt   23.970797   18.629040   12.958904
Pt   23.845444   18.424514   15.731795
Pt   23.677949   18.254598   18.618363
Pt   23.528186   18.082266   21.508711
Pt   23.381137   17.898556   24.399447
Pt   23.244278   17.718386   27.286291
Pt   17.924668   18.038886   28.470973
Pt   26.837224   22.224534   14.768712
Pt   26.726621   22.067439   17.542489
Pt   26.562458   21.880966   20.436374
Pt   26.411981   21.698447   23.349733
Pt   26.275673   21.521656   26.245747
Pt   26.102913   21.332813   29.014407
Pt   24.442870   23.779824   14.661201
Pt   24.303907   23.617765   17.484243
Pt   24.133641   23.405853   20.392152
Pt   23.982354   23.222829   23.333853
Pt   23.852621   23.071038   26.246782
Pt   23.598203   25.414716   27.776360
Pt   21.994482   25.252711   14.705446
Pt   21.847519   25.118300   17.478653
Pt   21.698097   24.923366   20.373288
Pt   21.548012   24.742555   23.288317
Pt   21.398957   24.575324   26.184993
Pt   21.259913   24.366566   28.953394
Pt   19.785770   23.460201   14.400732
Pt   19.629789   23.295273   17.222946
Pt   19.501692   23.085430   20.131637
Pt   19.349839   22.904591   23.072689
Pt   19.177938   22.753270   25.984559
Pt   19.040992   22.568077   28.812119
Pt   17.626428   21.602882   14.247186
Pt   17.446222   21.432315   17.021513
Pt   17.310783   21.244286   19.917136
Pt   17.161098   21.066096   22.830589
Pt   17.000086   20.894122   25.728290
Pt   16.891763   20.712410   28.501491
Pt   18.665744   18.929628   14.064224
Pt   18.498370   18.737292   16.890166
Pt   18.382864   18.566721   19.796738
Pt   18.231702   18.391780   22.723215
Pt   18.055973   18.210916   25.638761
Pt   20.252596   17.359514   29.851692
Pt   19.765430   16.281569   14.044616
Pt   19.594493   16.067759   16.833969
Pt   19.449783   15.888150   19.689787
Pt   19.314911   15.741921   22.591640
Pt   19.163928   15.551760   25.494603
Pt   19.040879   15.405546   28.275456
Pt   22.630801   16.434814   14.131576
Pt   22.477957   16.222065   16.959043
Pt   22.321287   16.056416   19.868844
Pt   22.177032   15.880496   22.755047
Pt   22.033337   15.685235   25.665202
Pt   23.559978   13.756322   27.024928
Pt   25.473252   16.678502   14.361718
Pt   25.344225   16.478965   17.136678
Pt   25.175301   16.314025   20.031461
Pt   25.027559   16.134561   22.916543
Pt   24.736641   15.789634   28.584642
Pt   23.790072   20.338896   30.228725
Pt   26.194819   19.444414   14.488186
Pt   26.058843   19.268382   17.311081
Pt   25.873396   19.095889   20.217072
Pt   25.723140   18.912498   23.149186
Pt   25.609996   18.721904   26.059053
Pt   25.453920   18.544631   28.886584
Pt   29.021530   23.048091   16.392693
Pt   28.913134   22.890222   19.187904
Pt   30.246512   20.734108   23.458847
Pt   28.615463   22.529272   24.947238
Pt   28.436198   22.337546   27.734804
Pt   26.636431   24.604937   16.266931
Pt   26.483978   24.442104   19.103142
Pt   26.296774   24.205099   22.034576
Pt   26.182079   24.075360   24.976259
Pt   26.042247   23.884627   27.808159
Pt   24.191955   26.133030   16.235473
Pt   24.058723   25.957952   19.071578
Pt   23.874869   25.719387   22.002922
Pt   23.757143   25.592186   24.944759
Pt   23.500779   27.934701   26.476234
Pt   21.746587   27.597555   16.299500
Pt   21.598559   27.462690   19.094297
Pt   21.449770   27.287979   21.974475
Pt   23.649569   28.084491   23.577117
Pt   21.160292   26.891609   27.642765
Pt   19.542293   25.814730   15.975256
Pt   19.380343   25.637022   18.809009
Pt   19.268343   25.403226   21.743761
Pt   19.077906   25.272482   24.681807
Pt   18.944570   25.098737   27.515250
Pt   17.338597   23.973859   15.746470
Pt   17.193485   23.807783   18.582001
Pt   17.083888   23.575466   21.516092
Pt   16.889746   23.442703   24.453486
Pt   16.739336   23.255142   27.286739
Pt   15.186235   22.116097   15.614669
Pt   15.003641   21.943883   18.408271
Pt   14.849925   21.762999   21.288384
Pt   14.704557   21.584497   24.168393
Pt   14.597781   21.401430   26.961143
Pt   16.222722   19.463073   15.400168
Pt   16.069869   19.256065   18.241426
Pt   15.975918   19.093033   21.181309
Pt   15.763744   18.899777   24.113692
Pt   15.620604   18.736233   26.948078
Pt   17.297345   16.766965   15.295375
Pt   17.133133   16.565682   18.157181
Pt   17.026705   16.413533   21.048716
Pt   16.838530   16.249744   23.997679
Pt   16.707645   16.069289   26.839603
Pt   19.951966   12.186437   16.645632
Pt   18.168491   13.824423   18.046287
Pt   18.084528   13.730745   20.936070
Pt   16.808301   11.834539   19.513878
Pt   16.591236   11.599742   24.994132
Pt   21.240026   14.284340   15.353523
Pt   21.068977   14.073644   18.219558
Pt   20.901186   13.906914   21.116511
Pt   20.793906   13.712695   24.020621
Pt   20.648232   13.559700   26.866293
Pt   24.157317   14.480129   15.526359
Pt   23.997850   14.272551   18.373898
Pt   23.880715   14.112235   21.279581
Pt   23.700634   13.907779   24.180338
Pt   25.205745   12.015284   25.498700
Pt   26.968055   14.715468   15.788185
Pt   24.174070   10.526621   18.230760
Pt   26.687789   14.301179   21.434349
Pt   24.895830   15.939373   25.811049
Pt   26.383734   14.008299   27.084209
Pt   27.694356   17.487280   15.886127
Pt   27.558236   17.323556   18.721618
Pt   27.346371   17.147336   21.646005
Pt   27.256907   16.956409   24.576891
Pt   27.101467   16.764937   27.408368
Pt   28.385539   20.279694   16.091644
Pt   28.244950   20.093662   18.924876
Pt   28.030922   19.920661   21.855061
Pt   27.943075   19.726477   24.790863
Pt   27.793411   19.557361   27.623420
Pt   31.164884   23.852129   18.062629
Pt   31.157795   23.734403   20.841185
Pt   31.012760   23.559395   23.650182
Pt   30.734722   23.330381   26.406685
Pt   28.816248   25.428649   17.884025
Pt   28.767573   22.710593   22.068162
Pt   28.493616   25.055504   23.640302
Pt   28.371646   24.887605   26.540239
Pt   26.389753   26.964548   17.860300
Pt   26.232951   26.772061   20.749964
Pt   26.086087   26.593265   23.613455
Pt   25.945472   26.425517   26.505590
Pt   23.946930   28.473444   17.821954
Pt   23.796716   28.263245   20.717264
Pt   25.988887   29.096580   22.322585
Pt   23.396130   30.288001   25.081396
Pt   21.498031   29.895471   17.939692
Pt   21.344877   29.870163   20.716126
Pt   18.786206   29.973199   24.824238
Pt   21.068411   29.376175   26.283396
Pt   19.292548   28.155203   17.561383
Pt   18.999707   27.766674   23.317049
Pt   18.869457   30.201985   22.022352
Pt   18.844996   27.617233   26.215536
Pt   17.085532   26.331518   17.338443
Pt   16.944473   26.138790   20.228687
Pt   16.796708   25.959978   23.091744
Pt   16.637316   25.791968   25.981944
Pt   14.900272   24.486374   17.105378
Pt   14.777429   24.292016   20.002788
Pt   14.629334   24.112461   22.861888
Pt   14.450733   23.942690   25.758646
Pt   12.782549   22.609155   17.032642
Pt   12.497443   22.466297   19.796804
Pt   12.349113   22.288251   22.604353
Pt   12.347737   22.080520   25.376702
Pt   13.781505   19.970868   16.762112
Pt   13.662106   19.771757   19.663030
Pt   13.509192   19.593765   22.523285
Pt   13.326380   19.420968   25.419479
Pt   14.846474   17.309318   16.637223
Pt   14.713763   17.104202   19.555725
Pt   14.554407   16.936976   22.416639
Pt   14.387857   16.760301   25.304685
Pt   18.415697   14.171237   15.325212
Pt   15.721431   14.377387   19.376468
Pt   17.954016   13.585792   23.817340
Pt   17.830456   13.435108   26.632564
Pt   21.437643   10.346950   18.071974
Pt   14.465637   12.379252   20.808272
Pt   16.683261   11.614136   22.236474
Pt   15.478647   14.126184   25.214885
Pt   19.427448   11.625013   25.183670
Pt   19.654872   11.871636   19.469380
Pt   19.531408   11.696899   22.340049
Pt   30.296821   13.345916   24.373864
Pt   22.772672   12.346306   16.729247
Pt   22.599244   12.196997   19.653891
Pt   21.286457   10.092670   20.889018
Pt   22.311594   11.795969   25.434067
Pt   26.831482   14.524681   18.592664
Pt   25.548491   12.265029   19.809868
Pt   28.037464   12.372721   25.566537
Pt   23.882736   10.173896   23.876491
Pt   30.583791   13.695784   18.780777
Pt   24.033728   10.270574   21.045565
Pt   28.466107   12.893357   17.251564
Pt   26.537732   14.168757   24.281173
Pt   29.206556   15.555918   17.295116
Pt   29.031543   15.382288   20.186288
Pt   28.884401   15.203462   23.038979
Pt   28.761919   15.014143   25.932090
Pt   29.901305   18.320756   17.506283
Pt   29.737481   18.140683   20.392374
Pt   29.589946   17.961480   23.251520
Pt   29.456721   17.779257   26.139531
Pt   30.571894   21.102472   17.705899
Pt   30.394061   20.912938   20.600281
Pt   32.297262   21.525774   24.994310
Pt   30.127211   20.560866   26.356500
Pt   28.640380   25.234201   20.779953
Pt   30.734887   26.058845   22.378217
Pt   30.557178   25.809955   25.175071
Pt   28.504774   27.685330   19.520725
Pt   28.401824   27.586915   22.354166
Pt   28.214371   27.332230   25.173760
Pt   26.081965   29.200982   19.489462
Pt   30.845291   26.159334   19.569094
Pt   25.790388   28.848336   25.141420
Pt   23.684217   30.637415   19.477331
Pt   23.592468   30.524883   22.285916
Pt   21.200067   29.694692   23.525001
Pt   19.147180   27.944559   20.456672
Pt   19.075008   30.321716   19.220082
Pt   21.301744   27.103913   24.854317
Pt   16.907257   28.575624   18.975606
Pt   16.699248   28.463233   21.802398
Pt   16.614909   28.223103   24.626837
Pt   14.720838   26.750292   18.749101
Pt   14.521604   26.643956   21.575871
Pt   14.428058   26.395208   24.398557
Pt   12.615499   24.923113   18.549926
Pt   12.426447   24.814709   21.353487
Pt   12.325181   24.569170   24.152359
Pt   11.507544   20.448589   18.210839
Pt   11.292696   20.219737   21.004702
Pt   11.212323   20.089546   23.813719
Pt   12.502072   17.844487   18.076321
Pt   12.286103   17.611276   20.895541
Pt   12.208308   17.480965   23.728027
Pt   13.568101   15.282547   17.945622
Pt   13.362398   14.971594   20.778617
Pt   13.277136   14.839575   23.615479
Pt   15.934729   14.724391   16.572163
Pt   14.364468   12.265734   23.550643
Pt   15.650349   14.301336   22.301861
Pt   21.147315   9.992152   23.722861
Pt   25.402662   12.084472   22.670024
Pt   22.457347   12.015688   22.512833
Pt   28.397318   12.604563   19.998083
Pt   28.252948   12.428474   22.813650
Pt   25.646252   12.549177   16.990117
Pt   30.500146   13.493818   21.578746
Pt   31.231459   16.198155   21.786312
Pt   31.005668   16.045474   24.601290
Pt   31.295730   16.398442   18.965678
Pt   31.908850   18.953941   21.994718
Pt   31.680340   18.806268   24.814642
Pt   32.585413   21.876189   19.391779
Pt   31.971583   19.159961   19.169100
Pt   32.516752   21.669701   22.195715
