309
Generated with con2xyz
Pt   16.545452   16.056165   17.857531
Pt   18.756875   14.669972   18.811702
Pt   19.090297   16.734454   16.931528
Pt   17.175632   16.269020   20.533099
Pt   15.657055   22.115202   15.946278
Pt   19.441327   18.968332   15.079685
Pt   16.931475   18.141586   15.915852
Pt   14.514134   17.542211   16.901284
Pt   17.493516   18.464750   18.668503
Pt   17.835884   20.649228   16.856501
Pt   17.234898   20.443300   14.218944
Pt   14.970677   17.735080   19.579356
Pt   13.603690   19.480382   21.344802
Pt   15.673289   17.954758   22.292546
Pt   16.041707   20.175855   20.478253
Pt   14.281662   19.702074   24.012701
Pt   18.212251   22.882949   15.048172
Pt   15.183176   19.975166   17.798685
Pt   14.843751   19.639084   15.161947
Pt   16.385269   22.376270   18.653115
Pt   16.706988   24.574519   16.801721
Pt   13.852837   21.664318   19.591892
Pt   14.502269   21.897537   22.262981
Pt   14.843598   24.094211   20.439519
Pt   14.273873   23.774149   17.780620
Pt   20.991614   13.294873   19.771871
Pt   23.240461   12.018773   20.751662
Pt   23.567869   13.981916   18.868684
Pt   21.691859   13.482247   22.479985
Pt   21.655736   17.530709   16.069507
Pt   23.906272   16.141016   17.047277
Pt   24.245031   18.302111   15.257815
Pt   21.310572   15.349593   17.897423
Pt   19.767291   17.039198   19.656820
Pt   22.037648   15.641488   20.635332
Pt   22.390524   17.801250   18.783407
Pt   19.427849   14.861031   21.499344
Pt   17.924825   16.532774   23.252350
Pt   20.184061   15.140564   24.225651
Pt   20.518875   17.294682   22.413355
Pt   18.702073   16.806702   25.956577
Pt   19.782506   21.198287   13.400089
Pt   22.352535   21.953356   12.597933
Pt   31.415782   22.597012   17.299564
Pt   21.999062   19.732645   14.265722
Pt   20.455840   21.431776   16.015807
Pt   22.731454   19.977918   16.980066
Pt   23.065617   22.201497   15.201015
Pt   20.120330   19.207955   17.804660
Pt   18.651952   20.929472   19.605990
Pt   20.899820   19.507057   20.580921
Pt   21.242971   21.702036   18.762358
Pt   18.261668   18.702043   21.435794
Pt   16.761040   20.431095   23.198975
Pt   19.024004   18.975245   24.160594
Pt   19.388337   21.203259   22.341838
Pt   16.433990   18.228034   24.999135
Pt   15.054737   19.975209   26.698556
Pt   17.227792   18.502494   27.696850
Pt   17.538862   20.705785   25.904162
Pt   18.107455   25.100918   31.112860
Pt   23.405555   24.416807   13.421083
Pt   20.805091   23.645628   14.218812
Pt   19.300769   25.333732   15.955339
Pt   21.554549   23.920045   16.923184
Pt   21.897458   26.100805   15.142655
Pt   18.955999   23.147368   17.749382
Pt   17.447182   24.836978   19.544202
Pt   19.730198   23.397607   20.522850
Pt   20.057600   25.600583   18.668151
Pt   17.084553   22.657013   21.395557
Pt   15.597802   24.346871   23.153493
Pt   17.846433   22.920748   24.108091
Pt   18.185966   25.101212   22.299514
Pt   15.266327   22.147539   24.952943
Pt   16.055324   22.432126   27.642328
Pt   16.372125   24.612629   25.848555
Pt   20.412778   27.765235   16.872249
Pt   17.803972   27.009777   17.714073
Pt   15.293189   26.197689   18.621965
Pt   18.561408   27.269122   20.460408
Pt   18.931457   29.432871   18.630080
Pt   15.946382   26.518682   21.325372
Pt   16.709409   26.772969   24.056363
Pt   17.067538   28.933075   22.247336
Pt   16.399716   28.611945   19.530366
Pt   26.173948   14.763474   18.040489
Pt   28.373161   13.543453   19.115489
Pt   28.754824   15.611146   17.310894
Pt   25.823478   12.720090   19.924378
Pt   24.334145   14.310235   21.634631
Pt   26.603663   12.913550   22.610154
Pt   26.954387   15.083780   20.808492
Pt   24.004694   12.229471   23.430527
Pt   22.463759   13.761951   25.199869
Pt   23.284631   14.128930   27.861438
Pt   25.113235   14.583722   24.365478
Pt   21.810245   15.792074   29.587062
Pt   26.853188   19.084747   14.466854
Pt   29.093193   17.761572   15.534722
Pt   27.971472   21.568789   15.446680
Pt   26.527626   16.917344   16.247300
Pt   25.021121   18.575408   17.966661
Pt   27.331395   17.205840   18.978534
Pt   27.670712   19.366145   17.193233
Pt   24.668390   16.429419   19.764896
Pt   23.169502   18.110829   21.563811
Pt   25.456275   16.778363   22.561348
Pt   25.825204   18.894329   20.738841
Pt   22.789095   15.920807   23.401184
Pt   21.307745   17.570716   25.147631
Pt   23.622450   16.201633   26.145278
Pt   23.968457   18.393064   24.327557
Pt   20.985747   15.421172   26.945431
Pt   19.499917   17.098879   28.665436
Pt   20.365589   17.497288   31.229407
Pt   22.141446   17.870638   27.877002
Pt   21.430856   19.895923   32.203205
Pt   24.591235   20.493691   13.476835
Pt   26.026619   25.129877   12.752978
Pt   24.920463   22.710089   11.899270
Pt   30.507086   22.347743   14.672468
Pt   25.344879   20.744834   16.192163
Pt   23.851544   22.474011   17.949071
Pt   26.163933   21.057097   18.949070
Pt   26.467949   23.248104   17.203198
Pt   23.525685   20.281627   19.746051
Pt   22.022009   21.979232   21.511661
Pt   24.316765   20.564663   22.501865
Pt   24.660067   22.755377   20.687185
Pt   21.671573   19.782086   23.327321
Pt   20.171917   21.480426   25.062426
Pt   22.484767   20.062401   26.059703
Pt   22.811955   22.256284   24.258047
Pt   19.826361   19.252620   26.863325
Pt   15.904749   20.272709   29.317851
Pt   20.665504   19.594086   29.565844
Pt   21.014997   21.774119   27.747703
Pt   18.106416   18.870957   30.327345
Pt   19.173053   21.282902   31.300911
Pt   27.174974   21.320131   12.810236
Pt   24.513473   26.863160   14.348763
Pt   25.691886   22.976560   14.460205
Pt   26.810875   25.432028   15.387108
Pt   24.160205   24.695253   16.131764
Pt   22.681406   26.376742   17.849753
Pt   24.990872   24.955493   18.886989
Pt   25.331083   27.153106   17.072231
Pt   22.357264   24.172841   19.689744
Pt   20.852156   25.842317   21.447787
Pt   23.154494   24.447334   22.444094
Pt   23.503756   26.625590   20.620559
Pt   20.506123   23.673702   23.267931
Pt   18.973565   25.377371   25.031541
Pt   21.316035   23.961847   25.999482
Pt   21.652969   26.124072   24.209316
Pt   18.644927   23.206096   26.805933
Pt   17.175983   24.883141   28.551692
Pt   19.511020   23.459327   29.506643
Pt   19.810228   25.661392   27.759337
Pt   16.969507   22.683430   30.270662
Pt   18.391826   27.270635   29.415669
Pt   27.091565   27.527466   13.718658
Pt   23.034353   28.541560   16.072066
Pt   21.541651   30.195953   17.807579
Pt   23.844739   28.820611   18.801042
Pt   25.645536   29.230340   15.358346
Pt   21.193122   28.026665   19.590313
Pt   17.564856   30.945988   20.459186
Pt   22.017470   28.243846   22.386581
Pt   22.350036   30.437986   20.576883
Pt   19.317298   27.522183   23.227367
Pt   17.849000   29.202916   24.969822
Pt   20.145689   27.820993   25.969599
Pt   20.515022   29.943185   24.133274
Pt   17.511556   27.053632   26.773570
Pt   18.724380   29.419119   27.633671
Pt   19.096279   31.484013   25.821059
Pt   24.166081   30.889496   17.079438
Pt   19.733831   29.668210   21.403338
Pt   20.111598   31.761772   19.635402
Pt   18.303709   31.275563   23.142248
Pt   21.642320   32.308539   25.014307
Pt   29.623705   15.822549   19.975900
Pt   29.159495   13.738234   21.789154
Pt   27.734311   15.349363   23.538389
Pt   27.338455   13.236185   25.293068
Pt   31.056372   16.361007   25.393783
Pt   24.746982   12.557913   26.103275
Pt   25.912239   14.808383   27.129268
Pt   28.522392   15.552785   26.297426
Pt   29.376645   19.932007   13.835648
Pt   29.966437   17.975398   18.180495
Pt   28.505540   19.650667   19.928235
Pt   30.761569   18.251348   20.902051
Pt   31.100044   20.409757   19.109709
Pt   28.158480   17.505639   21.725041
Pt   26.626180   19.183268   23.504268
Pt   28.914736   17.757480   24.485086
Pt   29.294408   19.938272   22.669110
Pt   26.279662   16.996340   25.352830
Pt   24.795810   18.648104   27.096232
Pt   27.037475   17.227424   28.063374
Pt   27.427631   19.432407   26.276656
Pt   24.422046   16.470444   28.872322
Pt   22.943653   18.157235   30.602223
Pt   25.547855   18.907438   29.807264
Pt   28.301653   23.747679   13.651231
Pt   29.092566   24.024978   16.368110
Pt   30.302322   20.147450   16.402074
Pt   29.361337   26.157296   14.613006
Pt   28.836954   21.822587   18.156554
Pt   27.307048   23.537381   19.891924
Pt   29.639528   22.106246   20.868068
Pt   29.943283   24.318631   19.068434
Pt   26.969755   21.342966   21.684182
Pt   25.447130   23.026373   23.433061
Pt   27.763435   21.637357   24.436896
Pt   28.081972   23.806662   22.616413
Pt   25.123317   20.844103   25.257492
Pt   23.636298   22.543026   26.993116
Pt   25.938318   21.110323   28.018443
Pt   26.263141   23.307692   26.175339
Pt   23.319798   20.332486   28.814404
Pt   22.538095   22.322871   33.057229
Pt   24.042812   20.604181   31.536881
Pt   24.419262   22.825736   29.741734
Pt   18.386898   21.002985   28.589380
Pt   21.787442   22.050292   30.490989
Pt   31.565415   24.756530   15.610862
Pt   27.962951   27.926563   16.280728
Pt   30.235590   26.519964   17.238275
Pt   27.649815   25.766493   18.094847
Pt   26.160905   27.446603   19.800171
Pt   28.454920   26.041236   20.805277
Pt   28.751863   28.217006   18.984667
Pt   25.797952   25.230171   21.615326
Pt   24.306597   26.904948   23.381871
Pt   26.579310   25.483805   24.351789
Pt   26.952246   27.715713   22.524176
Pt   23.954654   24.728186   25.196960
Pt   22.454667   26.442538   26.977058
Pt   24.754544   25.030860   27.956570
Pt   25.068587   27.211034   26.158774
Pt   22.138938   24.275149   28.752250
Pt   20.635103   25.944268   30.478182
Pt   22.894596   24.535744   31.462835
Pt   23.249315   26.716658   29.677034
Pt   20.305989   23.714205   32.140150
Pt   26.472803   29.606351   17.997735
Pt   24.990341   31.266025   19.740573
Pt   27.267183   29.887682   20.711966
Pt   24.677245   29.100718   21.543174
Pt   24.222290   33.007543   24.192598
Pt   25.418392   29.388093   24.302446
Pt   23.127885   30.718247   23.305002
Pt   22.800996   28.594526   25.178767
Pt   21.299097   30.265072   26.901446
Pt   23.572068   28.876445   27.896718
Pt   23.898082   31.041444   26.075734
Pt   20.956426   28.110049   28.697303
Pt   22.699060   32.456228   18.833062
Pt   23.450651   32.798015   21.508295
Pt   20.854778   32.108925   22.323181
Pt   29.889202   14.035741   24.463754
Pt   31.884763   20.675025   21.825997
Pt   30.397782   16.077440   22.694824
Pt   30.047344   20.212434   25.423414
Pt   32.163699   18.756165   26.302149
Pt   31.524908   18.505016   23.626598
Pt   29.642107   17.954593   27.213255
Pt   28.122334   19.635765   28.989146
Pt   30.701207   20.347583   28.171352
Pt   32.415183   25.049774   18.226050
Pt   32.211383   22.863819   19.987261
Pt   30.697353   24.585615   21.812154
Pt   32.864537   23.086118   22.614746
Pt   33.097922   25.295881   20.900545
Pt   30.403385   22.405283   23.600390
Pt   28.905311   24.124151   25.343180
Pt   32.582185   20.959292   24.537792
Pt   28.656143   30.302498   26.100157
Pt   28.575917   21.913430   27.193743
Pt   27.055687   23.589685   28.924522
Pt   29.194650   22.040146   29.930941
Pt   31.137076   22.692275   26.295822
Pt   26.621013   21.359044   30.744375
Pt   25.099403   23.077026   32.355673
Pt   27.662939   23.825998   31.559279
Pt   31.025578   26.806805   19.925611
Pt   31.667131   27.059781   22.556075
Pt   30.195579   28.697663   24.390271
Pt   29.236266   26.281294   23.546784
Pt   27.660827   27.956118   25.256890
Pt   29.879680   26.643628   26.251054
Pt   29.531213   28.502928   21.695053
Pt   27.364760   25.784490   27.105272
Pt   25.855212   27.476453   28.863763
Pt   28.086266   26.027697   29.794954
Pt   26.470329   31.727776   25.177327
Pt   25.503986   25.297060   30.657282
Pt   28.029277   30.173321   23.434197
Pt   25.763499   31.549662   22.459573
Pt   28.369954   28.215678   27.937588
Pt   26.161168   29.660141   27.055181
Pt   31.634276   22.780166   28.969878
Pt   29.670446   24.437040   28.024325
Pt   33.068364   21.126954   27.219132
Pt   30.127685   24.432081   30.648935
