309
Generated with con2xyz
Pt   11.925576   23.733269   25.277684
Pt   10.110090   16.350428   22.908539
Pt   11.512570   16.670734   20.590233
Pt   12.157522   15.265371   24.400723
Pt   10.381882   21.376586   20.444093
Pt   11.642017   19.213613   19.333167
Pt   11.872885   21.753498   18.140217
Pt   10.185814   18.877636   21.697237
Pt   11.745193   21.305076   26.531223
Pt   12.342772   17.869019   23.103046
Pt   12.479520   20.412503   21.820753
Pt   10.808790   17.471301   25.303216
Pt   13.826981   17.692930   29.220121
Pt   12.948776   16.483509   26.842238
Pt   13.021901   19.038628   25.668128
Pt   15.987846   16.745739   30.579503
Pt   12.580176   23.010775   20.544415
Pt   11.094219   22.556481   22.875580
Pt   10.884981   20.052259   24.154836
Pt   14.201225   25.290087   25.471596
Pt   13.361803   24.197694   23.005148
Pt   13.255325   21.586723   24.298819
Pt   13.859553   20.258896   28.053861
Pt   14.006852   22.822355   26.831280
Pt   16.554495   26.802326   25.630452
Pt   12.927867   12.012981   20.862673
Pt   14.432269   9.946285   19.831640
Pt   12.963005   14.482035   19.556941
Pt   18.898051   7.874449   22.714947
Pt   13.100572   17.015824   18.273899
Pt   14.567209   14.847827   17.232125
Pt   14.700416   17.373336   15.960799
Pt   11.474069   14.169824   21.896398
Pt   13.745031   15.641210   22.051553
Pt   15.218648   13.460175   21.004661
Pt   15.338201   16.003927   19.694568
Pt   13.611683   13.095296   23.347453
Pt   14.385342   14.272708   25.828036
Pt   15.860497   12.096037   24.780469
Pt   15.988268   14.613159   23.510836
Pt   16.628781   13.279483   27.238990
Pt   13.487812   22.056927   15.915036
Pt   17.874919   15.568558   12.782931
Pt   18.171266   25.263873   16.119758
Pt   13.228337   19.562220   17.021952
Pt   14.026852   20.790222   19.474055
Pt   15.477380   18.556232   18.415378
Pt   15.664201   21.130375   17.177343
Pt   13.888038   18.197652   20.730369
Pt   14.726094   19.388138   23.280427
Pt   16.156400   17.186757   22.207587
Pt   16.285921   19.766452   20.927182
Pt   14.522356   16.816001   24.570181
Pt   15.313933   18.041695   27.020828
Pt   16.768313   15.800512   25.978691
Pt   16.951494   18.388643   24.701132
Pt   15.158298   15.465017   28.282321
Pt   17.568966   17.037359   28.432669
Pt   23.089819   21.291178   31.031196
Pt   17.441408   14.513787   29.663809
Pt   22.236043   17.555575   30.068677
Pt   19.694108   23.005124   15.092698
Pt   14.178464   23.361892   18.223954
Pt   14.949976   24.563484   20.690072
Pt   16.408879   22.372142   19.645543
Pt   16.546883   24.900475   18.381660
Pt   14.818906   22.017367   21.957616
Pt   15.585526   23.184278   24.479491
Pt   17.068321   20.968443   23.422040
Pt   17.176770   23.563358   22.123368
Pt   15.448002   20.610697   25.796348
Pt   16.220360   21.809445   28.256102
Pt   17.700077   19.616624   27.219832
Pt   17.818695   22.164705   25.950031
Pt   16.065063   19.280577   29.503027
Pt   18.308824   18.288838   30.809606
Pt   18.472968   20.800436   29.675891
Pt   17.315789   26.088230   20.846691
Pt   15.721136   25.736427   23.177410
Pt   18.926604   28.221675   25.752465
Pt   17.959229   24.710840   24.633355
Pt   18.096942   27.250966   23.326108
Pt   16.364047   24.358335   26.976617
Pt   18.595319   23.330824   28.410418
Pt   18.742372   25.862564   27.132424
Pt   21.146882   27.286302   27.180433
Pt   14.442814   12.325258   18.503207
Pt   18.375303   11.684853   17.641968
Pt   20.012983   12.030983   15.244881
Pt   16.009030   10.239799   17.524216
Pt   16.747513   11.310965   19.961621
Pt   20.527763   8.170153   20.411172
Pt   16.594578   8.834026   21.239018
Pt   15.086955   10.936895   22.311362
Pt   17.349621   9.925022   23.726324
Pt   19.651097   9.013537   25.113265
Pt   19.002301   10.247692   21.357851
Pt   20.399790   10.169718   27.518507
Pt   20.128057   14.558399   13.984017
Pt   17.742614   13.071971   13.950772
Pt   18.993717   21.853894   12.661629
Pt   16.060555   12.679961   16.187103
Pt   16.955739   16.367409   17.367498
Pt   18.483543   14.188831   16.308574
Pt   18.624294   16.746210   15.072101
Pt   16.827941   13.841078   18.647042
Pt   17.640671   14.991256   21.154746
Pt   19.172605   12.819699   20.115071
Pt   19.267373   15.353373   18.811775
Pt   17.486006   12.434442   22.465419
Pt   18.253417   13.606022   24.937941
Pt   19.770477   11.411580   23.853278
Pt   19.918571   13.985363   22.598880
Pt   18.111696   11.076201   26.173717
Pt   18.856151   12.263987   28.609195
Pt   21.147614   11.392884   29.864283
Pt   20.535098   12.594755   26.312227
Pt   21.302376   13.854771   28.718947
Pt   18.695732   19.283598   13.741160
Pt   19.864415   25.457918   13.962451
Pt   21.170811   20.810644   14.036343
Pt   16.358752   17.703214   13.758429
Pt   17.116090   18.927094   16.106605
Pt   17.912346   20.115240   18.622872
Pt   19.405494   17.905933   17.564053
Pt   19.493920   20.444017   16.283125
Pt   17.763727   17.549497   19.873619
Pt   18.550791   18.756005   22.358061
Pt   20.044044   16.544905   21.299257
Pt   20.187586   19.113232   20.032585
Pt   18.417349   16.174987   23.639571
Pt   19.203363   17.381861   26.110736
Pt   20.690882   15.175923   25.081310
Pt   20.820598   17.739215   23.777948
Pt   19.023774   14.824465   27.407785
Pt   19.798268   16.064175   29.943618
Pt   25.184630   13.204993   27.884961
Pt   21.474384   16.400811   27.588052
Pt   19.712057   13.493226   30.903042
Pt   26.116966   16.967704   29.017787
Pt   22.773275   21.140784   11.882847
Pt   17.216950   21.473788   14.794308
Pt   18.019499   22.700713   17.324545
Pt   20.460179   19.670021   11.688903
Pt   17.549287   23.986672   13.770621
Pt   18.793851   23.913396   19.790449
Pt   20.313565   21.674078   18.745734
Pt   20.461024   24.259153   17.504608
Pt   18.683106   21.329810   21.083530
Pt   19.450834   22.501109   23.572362
Pt   20.962712   20.308323   22.514452
Pt   21.088147   22.857986   21.216622
Pt   19.325693   19.954782   24.855469
Pt   20.081201   21.146090   27.373886
Pt   21.594511   18.931479   26.254740
Pt   21.737553   21.477048   25.013479
Pt   19.969958   18.570571   28.620591
Pt   23.243070   23.800693   29.861665
Pt   24.588707   19.129031   30.073058
Pt   22.032328   14.957639   31.096174
Pt   20.732438   19.780285   30.959888
Pt   20.601882   26.692598   16.323509
Pt   18.949327   26.450420   18.558885
Pt   19.708521   27.612010   21.019000
Pt   21.226748   25.434651   19.956117
Pt   20.521303   28.637149   23.495298
Pt   19.556648   25.073956   22.263356
Pt   20.371931   26.181383   24.763814
Pt   21.851842   23.974279   23.701657
Pt   24.335887   27.997039   22.617648
Pt   20.207780   23.669256   26.102604
Pt   20.987812   24.850438   28.551933
Pt   22.510102   22.660626   27.514218
Pt   24.243411   25.533894   23.873397
Pt   20.856036   22.324777   29.823057
Pt   22.103529   28.927410   21.205568
Pt   21.990164   26.544444   22.446405
Pt   22.757275   27.710754   24.923060
Pt   22.624424   25.167545   26.191563
Pt   23.349201   26.238072   28.550507
Pt   17.627256   10.643018   15.264288
Pt   19.822187   9.650120   16.562994
Pt   20.678634   10.552531   19.009431
Pt   18.239200   9.124726   18.848690
Pt   22.247323   11.016695   16.713053
Pt   18.203293   6.922669   20.345791
Pt   21.311267   9.250015   22.828711
Pt   22.911267   9.643380   20.493072
Pt   16.186563   15.191077   14.915381
Pt   22.508117   16.062764   14.141437
Pt   20.909741   15.693788   16.449370
Pt   22.391968   13.523545   15.405197
Pt   22.670337   18.588318   12.906987
Pt   20.783286   13.151371   17.730006
Pt   21.545654   14.356344   20.253118
Pt   23.012092   12.151649   19.195113
Pt   23.166438   14.690127   17.867526
Pt   21.423194   11.753165   21.534515
Pt   22.201778   12.935656   24.021793
Pt   23.684896   10.765569   22.965784
Pt   23.816186   13.289926   21.700044
Pt   22.058968   10.411051   25.272294
Pt   23.466065   12.859607   30.042516
Pt   24.455472   11.955789   25.433263
Pt   15.819240   23.648251   15.932312
Pt   21.321353   23.330162   12.863419
Pt   20.230724   17.116772   12.787450
Pt   25.006762   20.157058   13.175041
Pt   21.021438   18.250117   15.190445
Pt   21.806402   19.468337   17.689171
Pt   23.295911   17.241976   16.590366
Pt   23.452196   19.819864   15.367160
Pt   21.680958   16.902194   18.959302
Pt   22.458221   18.097104   21.453997
Pt   23.939560   15.887154   20.400552
Pt   24.071600   18.458221   19.113056
Pt   22.319895   15.524977   22.740449
Pt   23.081611   16.730347   25.211759
Pt   24.591616   14.480608   24.173671
Pt   24.718842   17.081305   22.897875
Pt   22.980426   14.154002   26.493019
Pt   29.122090   15.105750   25.695776
Pt   27.510119   14.800798   27.917488
Pt   30.682343   15.465015   23.401872
Pt   23.787324   15.391254   29.029469
Pt   14.878066   19.891849   14.815026
Pt   22.133184   24.597668   15.217118
Pt   23.610103   22.404507   14.157583
Pt   21.995917   22.054760   16.453035
Pt   22.757209   23.253820   18.891357
Pt   24.245255   21.053889   17.835385
Pt   24.385332   23.603048   16.605226
Pt   22.595528   20.668138   20.167566
Pt   23.376783   21.836874   22.659324
Pt   24.857374   19.649953   21.609245
Pt   25.018039   22.242911   20.310612
Pt   23.242870   19.290745   23.946122
Pt   24.042002   20.477033   26.459512
Pt   25.521623   18.294846   25.413470
Pt   25.664456   20.843731   24.136417
Pt   23.865314   17.914846   27.724402
Pt   24.793246   21.659826   28.914731
Pt   25.335654   15.723963   26.648880
Pt   26.278142   19.481119   27.877401
Pt   22.882698   25.791188   17.656870
Pt   21.358848   27.861705   18.759085
Pt   25.144834   24.780399   19.053993
Pt   23.525949   24.409493   21.353028
Pt   26.529654   26.942842   24.003002
Pt   25.777569   23.399761   22.830093
Pt   25.897047   25.945432   21.533158
Pt   24.174610   23.002719   25.186861
Pt   24.924450   24.188415   27.644016
Pt   26.421278   22.012494   26.605481
Pt   26.540188   24.550694   25.334942
Pt   22.361240   20.097576   28.742047
Pt   23.649897   26.950753   20.112952
Pt   28.051907   24.864515   22.982317
Pt   24.960099   26.645836   26.302448
Pt   24.476491   10.138591   18.207180
Pt   24.757473   15.054818   15.551889
Pt   24.623586   12.506068   16.830068
Pt   25.396618   13.661312   19.338716
Pt   26.817747   11.582475   18.335408
Pt   26.979176   14.033299   16.991462
Pt   25.283275   11.115308   20.645925
Pt   26.054040   12.294776   23.127360
Pt   27.632579   12.646962   20.798826
Pt   29.417353   18.169502   15.988722
Pt   24.911285   17.601471   14.298111
Pt   25.681197   18.821684   16.771685
Pt   27.123667   16.604176   15.709312
Pt   31.525548   17.179170   17.471316
Pt   25.537154   16.229766   18.020616
Pt   26.308977   17.446362   20.562164
Pt   27.740650   15.204352   19.500680
Pt   27.886387   17.825285   18.197660
Pt   26.192711   14.832255   21.858092
Pt   26.967772   16.063242   24.356737
Pt   29.965128   14.192769   20.982876
Pt   28.538386   16.423389   22.048854
Pt   28.412475   13.843236   23.301365
Pt   26.822687   13.490198   25.604992
Pt   32.146225   15.856100   21.093300
Pt   27.221536   19.162284   14.569070
Pt   25.843568   21.398862   15.533805
Pt   28.052593   20.406163   16.942118
Pt   26.479040   20.052517   19.259731
Pt   27.244937   21.227255   21.786059
Pt   28.681012   19.047564   20.746669
Pt   26.616042   22.602864   18.006109
Pt   27.125033   18.654420   23.095249
Pt   27.891167   19.845652   25.561661
Pt   27.765532   17.298260   26.816856
Pt   29.474767   20.221760   23.247370
Pt   22.833896   11.591848   27.697428
Pt   27.382417   23.781202   20.493819
Pt   29.513572   22.700986   21.940819
Pt   30.946846   20.526984   20.900354
Pt   28.024442   22.393451   24.286009
Pt   29.146797   13.116158   18.499182
Pt   29.342710   17.642624   24.520564
Pt   29.312209   15.589466   17.145039
Pt   30.022580   16.819991   19.704146
Pt   31.396069   14.705601   18.696341
Pt   30.899107   18.026177   22.221410
Pt   30.244030   19.425688   18.388870
Pt   28.831530   21.610138   19.449527
Pt   32.274534   18.330988   19.869672
