309
Generated with con2xyz
Pt   10.167594   21.128029   22.149218
Pt   22.991215   12.269851   15.901195
Pt   14.667781   15.731244   15.815792
Pt   12.306781   17.053354   24.014232
Pt   12.328616   19.530577   18.038790
Pt   16.260304   21.962241   16.300502
Pt   12.132006   23.624618   18.292691
Pt   14.532055   15.439812   19.870119
Pt   10.296491   19.169247   20.064998
Pt   12.565464   17.627264   15.869592
Pt   18.803416   11.686208   19.726067
Pt   14.218654   17.048236   26.083737
Pt   14.414269   15.170757   23.947342
Pt   14.344245   17.305024   22.063471
Pt   12.455878   17.360717   19.934009
Pt   22.176409   19.719844   24.462033
Pt   12.024734   21.137262   24.265366
Pt   10.499588   17.086232   21.921075
Pt   11.959801   23.282057   22.383039
Pt   14.187720   21.701193   18.226337
Pt   10.589340   19.548794   15.953403
Pt   8.729034   19.396845   17.899430
Pt   13.875543   23.262125   24.481341
Pt   14.307262   19.521074   20.130869
Pt   10.182065   23.292501   20.270096
Pt   16.211445   19.490869   22.238752
Pt   21.138548   8.096904   21.642373
Pt   16.064325   23.837810   18.438110
Pt   14.800052   11.585462   19.611683
Pt   12.720761   13.430228   19.670589
Pt   16.523069   13.320223   23.899400
Pt   14.402634   19.783480   16.092375
Pt   10.726128   15.323243   19.753073
Pt   16.479234   20.041921   14.177594
Pt   16.786661   13.850354   15.761240
Pt   10.563968   17.389806   17.837830
Pt   13.945396   21.122249   26.349265
Pt   18.600200   13.530417   21.934711
Pt   16.265837   17.294441   24.141471
Pt   24.144051   17.598784   28.369441
Pt   18.392248   15.411294   24.080592
Pt   20.688772   20.557836   10.405740
Pt   26.863386   12.343565   20.105590
Pt   16.741799   20.308532   10.371432
Pt   16.525556   17.851220   16.029042
Pt   14.620100   17.885581   13.948025
Pt   16.585993   15.694007   17.901688
Pt   20.533855   20.285885   14.424082
Pt   16.732048   15.990910   13.902876
Pt   14.463952   17.598674   17.950530
Pt   17.904829   28.052718   16.759638
Pt   16.658678   13.556182   19.816869
Pt   22.476536   15.658945   24.250107
Pt   15.996350   21.396103   24.415401
Pt   18.346343   22.226600   14.409246
Pt   10.335229   21.535446   18.008390
Pt   12.172621   18.974470   26.060443
Pt   18.034326   19.198334   28.350760
Pt   16.192825   17.109100   28.061612
Pt   15.819737   23.222662   26.575007
Pt   15.933318   21.053097   28.323221
Pt   16.349972   19.772710   18.191210
Pt   16.698902   18.140124   12.048518
Pt   14.164665   23.852675   16.345557
Pt   16.150616   21.665525   20.346551
Pt   14.655587   20.055602   12.170091
Pt   12.128663   21.402182   20.192360
Pt   13.996775   23.554254   20.414430
Pt   18.290435   19.754282   20.286201
Pt   18.314269   24.340510   12.524893
Pt   10.359656   18.980337   23.977824
Pt   14.064770   21.416061   22.325290
Pt   17.866312   23.523197   24.630862
Pt   13.806599   25.404374   22.603351
Pt   12.259227   19.244690   22.099835
Pt   23.022101   9.965143   21.944613
Pt   14.107482   18.966480   28.040768
Pt   16.022959   25.969140   16.569415
Pt   13.963731   25.722627   18.505466
Pt   13.850038   27.393030   20.688329
Pt   15.890003   25.663361   20.627442
Pt   15.840352   27.780626   18.726866
Pt   11.993083   25.382030   20.481949
Pt   15.726741   25.363983   24.699306
Pt   19.749109   31.643212   19.137689
Pt   15.681880   27.467702   22.814188
Pt   16.846931   11.781903   17.651171
Pt   20.608851   11.542626   25.876036
Pt   16.679670   11.465158   21.768513
Pt   22.816242   14.046406   18.021915
Pt   24.767383   14.063046   20.143486
Pt   14.713634   13.594431   17.696180
Pt   20.358303   15.450318   26.149815
Pt   18.657468   11.444837   23.844358
Pt   24.992101   12.253597   17.965942
Pt   16.408226   17.596322   20.078734
Pt   12.487258   15.181584   21.856811
Pt   18.234027   17.331031   26.227060
Pt   20.936242   16.617162   10.276240
Pt   18.832480   18.460323   10.262594
Pt   20.482252   22.433420   12.531578
Pt   22.916542   16.507163   12.168659
Pt   17.807435   23.162209   28.547228
Pt   18.944572   12.104542   15.716079
Pt   18.487981   17.856210   18.141523
Pt   21.027337   12.426610   13.879100
Pt   8.536246   21.185432   19.965571
Pt   20.303670   17.580902   24.241573
Pt   20.555892   13.539764   24.037229
Pt   12.340601   21.715890   16.097616
Pt   22.598703   15.934490   20.191035
Pt   22.526226   13.571072   26.157770
Pt   16.106311   19.213123   26.256870
Pt   18.863811   9.616191   21.664710
Pt   18.313098   15.233385   28.010336
Pt   20.158778   17.321411   28.297763
Pt   22.677281   13.787233   22.115178
Pt   22.263872   15.484757   28.172518
Pt   20.276334   24.354105   14.609973
Pt   18.610514   18.102887   14.134258
Pt   20.739796   18.413648   12.267652
Pt   20.229318   26.368050   12.793527
Pt   12.609929   19.799468   14.057940
Pt   20.333101   22.196880   16.498790
Pt   18.427821   20.027895   16.281156
Pt   16.226081   24.104378   14.439213
Pt   18.828132   16.265571   11.992878
Pt   24.621673   13.826666   24.226977
Pt   22.783208   16.203837   16.146259
Pt   22.347102   20.000932   20.450605
Pt   16.455264   15.408865   21.994923
Pt   18.551254   15.700320   20.030524
Pt   20.449352   17.846599   20.237222
Pt   20.697933   13.800720   19.957233
Pt   18.347572   17.577977   22.169325
Pt   16.344089   15.187105   26.038053
Pt   18.450628   13.304458   25.976569
Pt   28.070503   22.125343   24.897433
Pt   14.142421   19.224992   24.208784
Pt   14.569190   13.326134   21.786444
Pt   24.794518   18.630255   12.390120
Pt   18.872551   14.127799   13.832859
Pt   18.581970   22.405612   10.518672
Pt   22.540739   22.644324   10.688064
Pt   18.149257   24.110656   16.520566
Pt   14.374594   21.961879   14.201369
Pt   20.392392   20.014699   18.358900
Pt   22.257555   24.365194   16.683082
Pt   18.232157   21.927658   18.405737
Pt   18.038879   23.792321   20.562623
Pt   22.077668   24.059321   20.725910
Pt   20.132385   24.073463   18.625414
Pt   18.089182   21.646114   22.443125
Pt   21.963306   23.776323   24.794061
Pt   24.106500   19.701358   26.570206
Pt   17.597813   27.443431   24.954976
Pt   19.910259   21.315870   28.566063
Pt   26.006738   21.863514   26.818977
Pt   21.769494   23.413315   28.694946
Pt   19.668992   25.242876   28.691338
Pt   15.924888   23.542999   22.542355
Pt   22.014038   28.268062   16.891280
Pt   20.432233   24.478866   10.785026
Pt   17.677170   27.839679   20.849078
Pt   22.054547   26.226268   18.825880
Pt   18.113879   26.209561   14.634075
Pt   17.954200   25.978731   18.669419
Pt   17.800873   25.667979   22.753749
Pt   19.730448   27.718986   22.949409
Pt   21.600107   31.617841   21.159822
Pt   17.678089   25.331960   26.801349
Pt   19.565922   29.872837   21.147377
Pt   19.607126   27.372485   26.932283
Pt   19.788404   25.630204   24.860476
Pt   24.875174   12.019742   22.084683
Pt   20.031274   28.202841   14.886917
Pt   17.776824   29.818424   18.876734
Pt   19.850220   30.009669   16.987690
Pt   17.607101   29.430152   23.112351
Pt   21.901861   30.058521   19.002671
Pt   20.945870   9.894074   19.663979
Pt   24.346341   17.785064   24.466809
Pt   25.021061   10.284676   19.910462
Pt   18.666082   15.956264   15.977147
Pt   23.130836   8.362268   19.791838
Pt   16.360984   8.859143   21.918191
Pt   16.856109   9.795034   19.571120
Pt   12.610462   15.476404   17.752988
Pt   20.993181   14.467980   12.018841
Pt   22.793673   18.698674   10.434247
Pt   20.854846   14.112669   15.954623
Pt   24.906744   14.339950   16.090196
Pt   20.798620   16.228569   14.070152
Pt   20.247975   19.739120   22.362692
Pt   18.743223   13.820479   17.861375
Pt   20.650455   15.972962   18.102290
Pt   30.441219   16.561369   20.526234
Pt   20.412405   13.410843   27.902327
Pt   24.563128   15.904553   22.322802
Pt   22.859636   11.954033   19.940727
Pt   24.385964   15.685574   26.360573
Pt   23.115093   10.234760   17.835914
Pt   22.733791   11.743476   24.050405
Pt   28.234132   20.225181   22.724382
Pt   22.622734   20.546159   12.485781
Pt   16.444333   22.220141   12.313482
Pt   26.566241   18.322105   18.435806
Pt   18.600352   20.300955   12.317805
Pt   22.970492   14.360758   14.014940
Pt   24.596889   20.539040   14.509082
Pt   24.534672   22.711504   12.655617
Pt   24.664628   18.343636   16.354402
Pt   20.593583   18.109255   16.228698
Pt   22.140890   21.900515   22.606395
Pt   28.706141   16.474445   18.399079
Pt   28.444407   18.359291   20.577604
Pt   24.266345   19.979862   22.572367
Pt   19.850880   23.457892   26.690533
Pt   22.552987   18.101435   18.304592
Pt   21.977212   21.580515   26.654623
Pt   24.085588   21.894551   24.741474
Pt   17.975666   21.336001   26.496529
Pt   26.476853   15.923759   24.426465
Pt   23.895189   21.541802   28.628821
Pt   28.056300   19.951284   26.675269
Pt   26.582450   20.783100   12.680793
Pt   22.400136   24.586462   12.690052
Pt   22.463639   22.480271   14.575128
Pt   24.346647   24.593785   14.767068
Pt   28.494270   20.771414   14.739438
Pt   24.400078   22.465817   16.627573
Pt   24.632870   20.786489   10.712286
Pt   22.290298   22.181043   18.571242
Pt   23.985620   26.188215   20.957903
Pt   20.046085   21.614977   24.514544
Pt   22.497240   20.277308   16.444406
Pt   21.909443   25.916332   22.916225
Pt   23.843811   25.874796   25.015942
Pt   22.037639   19.441098   28.505842
Pt   28.027353   24.261254   23.030848
Pt   20.102329   19.455228   26.462794
Pt   25.832760   28.159868   21.174328
Pt   22.228616   17.574494   26.386975
Pt   28.698875   14.429081   20.314230
Pt   19.909391   25.923985   20.774514
Pt   20.073233   26.224179   16.739998
Pt   22.197212   26.448965   14.786770
Pt   23.735554   29.979326   21.221141
Pt   24.194804   24.349029   18.771304
Pt   20.191710   21.908820   20.502373
Pt   24.156709   26.444814   16.886354
Pt   19.545059   29.390038   25.057563
Pt   19.878894   28.079830   18.914008
Pt   21.710580   27.722287   25.075487
Pt   19.985016   23.787895   22.669392
Pt   21.764991   25.599086   26.946174
Pt   24.000024   28.256787   19.040814
Pt   21.828033   28.065148   21.002696
Pt   21.620189   29.787885   23.168925
Pt   20.826766   9.733025   23.773800
Pt   24.476234   18.075043   20.404533
Pt   26.636056   16.186990   20.358365
Pt   20.759772   11.673727   21.876655
Pt   20.897102   11.920013   17.742903
Pt   26.859901   14.350881   18.187374
Pt   20.504682   15.677715   22.121571
Pt   26.722846   14.088804   22.278304
Pt   30.293676   18.382848   22.642916
Pt   30.309174   20.750313   16.832848
Pt   24.861287   16.476752   14.236405
Pt   24.423363   20.263441   18.513219
Pt   30.308389   20.489736   20.793868
Pt   22.727796   18.352502   14.302374
Pt   24.713477   16.179110   18.227159
Pt   26.286990   20.239624   20.625856
Pt   28.557854   16.202469   22.490707
Pt   30.021058   20.208941   24.738845
Pt   28.385243   20.504095   18.699238
Pt   24.214075   22.166803   20.675796
Pt   28.336371   18.053556   24.625640
Pt   30.033835   22.317363   22.907870
Pt   26.268177   17.790223   26.549710
Pt   18.170601   19.475991   24.299482
Pt   25.984666   19.696183   28.497488
Pt   26.467757   22.694947   14.715882
Pt   28.377470   22.686604   16.798292
Pt   26.779979   16.463420   16.303374
Pt   28.635828   18.605337   16.526951
Pt   26.097540   26.421035   19.000585
Pt   28.185206   22.371957   20.846967
Pt   26.113264   24.306281   20.904464
Pt   23.876340   23.725054   26.890096
Pt   24.042497   24.053024   22.865917
Pt   26.269791   24.580364   16.841474
Pt   26.408079   18.042747   22.548888
Pt   26.144736   22.158586   22.824119
Pt   27.925512   26.309826   21.119390
Pt   25.922458   26.144306   23.081650
Pt   28.191446   24.545195   18.942470
Pt   26.303563   22.451480   18.711407
Pt   22.402588   17.818273   22.334680
Pt   26.518552   20.525453   16.576573
Pt   30.436724   18.652374   18.674283
Pt   29.929414   24.406397   21.056738
Pt   26.725928   18.624491   14.448192
Pt   26.210089   19.962129   24.687230
Pt   30.182600   22.589794   18.939366
Pt   23.792315   27.998200   23.136329
Pt   25.952404   24.013165   24.962435
