309
Generated with con2xyz
Pt   22.473261   22.087766   12.891788
Pt   22.473845   22.082420   15.728336
Pt   22.454343   22.105149   18.633511
Pt   22.447062   22.112557   21.527676
Pt   22.441045   22.119905   24.410292
Pt   22.435619   22.127226   27.297044
Pt   22.433117   22.131547   30.002399
Pt   24.785833   22.859188   14.279795
Pt   24.800950   22.868794   17.144759
Pt   24.779972   22.875926   20.067774
Pt   24.770558   22.880197   22.974096
Pt   24.772339   22.892483   25.886140
Pt   24.731625   22.890505   28.681660
Pt   22.372419   24.540835   11.647948
Pt   22.431404   24.538062   14.339989
Pt   22.424544   24.558663   17.221744
Pt   22.426399   24.566842   20.103404
Pt   22.424955   24.572369   22.994432
Pt   22.421433   24.587684   25.895471
Pt   22.422912   24.552110   28.685195
Pt   20.167537   22.929415   11.647334
Pt   20.148215   22.869396   14.339070
Pt   20.127029   22.879323   17.221043
Pt   20.115872   22.877644   20.102807
Pt   20.109802   22.879025   22.994666
Pt   20.094580   22.886696   25.895403
Pt   20.129214   22.876048   28.684774
Pt   21.031732   20.117914   14.277074
Pt   21.013604   20.103603   17.142146
Pt   21.010252   20.123163   20.065952
Pt   21.007473   20.131951   22.972768
Pt   20.994208   20.133985   25.884903
Pt   21.009358   20.172702   28.680760
Pt   23.886354   20.148591   14.356099
Pt   23.901536   20.123195   17.160964
Pt   23.892037   20.133000   20.075073
Pt   23.887820   20.136720   22.973649
Pt   23.887344   20.136570   25.882703
Pt   23.858149   20.177234   28.681915
Pt   27.098361   23.632223   15.703325
Pt   27.118050   23.631995   18.585607
Pt   27.089136   23.630477   21.515034
Pt   27.089240   23.648651   24.442716
Pt   27.042548   23.661002   27.244866
Pt   24.680058   25.376470   12.975902
Pt   24.762043   25.313124   15.734451
Pt   24.751085   25.334058   18.649156
Pt   24.754701   25.340264   21.555586
Pt   24.762931   25.358745   24.477194
Pt   24.752539   25.353162   27.317958
Pt   22.397836   26.984683   12.972586
Pt   22.401243   27.018122   15.756100
Pt   22.403211   27.020541   18.665181
Pt   22.404272   27.022507   21.549341
Pt   22.403443   27.028330   24.461837
Pt   22.412574   26.990542   27.252494
Pt   20.068607   25.375871   12.916475
Pt   20.071574   25.368761   15.747637
Pt   20.081790   25.351184   18.656584
Pt   20.082316   25.347263   21.564093
Pt   20.068469   25.361511   24.477596
Pt   20.084527   25.341774   27.319934
Pt   17.827361   23.643124   12.970749
Pt   17.791349   23.645280   15.754411
Pt   17.784728   23.641074   18.664957
Pt   17.781266   23.636786   21.551323
Pt   17.771997   23.641079   24.461436
Pt   17.806586   23.621715   27.251809
Pt   18.666462   20.983730   12.972282
Pt   18.697962   20.883202   15.730389
Pt   18.678365   20.896892   18.645720
Pt   18.669133   20.892791   21.553213
Pt   18.647045   20.890743   24.475332
Pt   18.656020   20.899305   27.317033
Pt   19.587421   18.149337   15.698122
Pt   19.577226   18.127947   18.580811
Pt   19.585008   18.152790   21.511262
Pt   19.566440   18.157549   24.439545
Pt   19.569287   18.205842   27.241962
Pt   22.460199   18.150388   15.720708
Pt   22.451792   18.122517   18.587016
Pt   22.451064   18.134806   21.522709
Pt   22.443381   18.129254   24.456980
Pt   22.432775   18.166285   27.315733
Pt   25.311422   18.190685   15.793693
Pt   25.335096   18.154742   18.610962
Pt   25.323672   18.167761   21.527508
Pt   25.325849   18.162887   24.443757
Pt   25.290642   18.210434   27.256653
Pt   26.221319   20.895707   15.723573
Pt   26.246750   20.891961   18.589418
Pt   26.232381   20.894562   21.524442
Pt   26.238541   20.899244   24.458066
Pt   26.206501   20.920733   27.316670
Pt   29.414787   24.409843   17.142054
Pt   29.432160   24.386662   20.050431
Pt   29.406943   24.405641   22.964719
Pt   29.355982   24.440632   25.794784
Pt   27.001625   26.143275   14.395564
Pt   27.074372   26.068496   17.161387
Pt   27.063949   26.087792   20.102228
Pt   27.084595   26.105985   23.034314
Pt   27.077351   26.113802   25.884785
Pt   24.726342   27.802726   14.321092
Pt   24.735006   27.793650   17.162033
Pt   24.732124   27.790196   20.102462
Pt   24.740563   27.802863   23.043882
Pt   24.734127   27.799290   25.892548
Pt   22.397555   29.437747   14.421338
Pt   22.388467   29.473315   17.223826
Pt   22.388712   29.502479   20.111384
Pt   22.391719   29.474629   22.999376
Pt   22.410323   29.434572   25.809610
Pt   20.068319   27.816974   14.341898
Pt   20.051920   27.821297   17.184136
Pt   20.060600   27.801157   20.113267
Pt   20.050173   27.812515   23.037405
Pt   20.083301   27.791835   25.899118
Pt   17.738781   26.110627   14.339572
Pt   17.742606   26.122250   17.182324
Pt   17.755184   26.102580   20.119886
Pt   17.733776   26.119371   23.040562
Pt   17.748066   26.083745   25.898797
Pt   15.487277   24.387717   14.422899
Pt   15.452508   24.399342   17.222064
Pt   15.423091   24.401882   20.117556
Pt   15.442093   24.395736   22.996137
Pt   15.475484   24.356635   25.809623
Pt   16.336331   21.674104   14.316322
Pt   16.338853   21.658023   17.157666
Pt   16.340197   21.655447   20.099296
Pt   16.323288   21.651002   23.040832
Pt   16.328437   21.652656   25.890238
Pt   17.225325   19.004603   14.388971
Pt   17.270506   18.909813   17.154687
Pt   17.252216   18.922669   20.096700
Pt   17.226418   18.907789   23.029863
Pt   17.220741   18.916259   25.881166
Pt   18.137381   16.178775   17.134309
Pt   18.149845   16.153082   20.043454
Pt   18.137302   16.181527   22.959171
Pt   18.118741   16.240185   25.789326
Pt   21.006800   16.189304   17.139713
Pt   21.018934   16.143931   20.033378
Pt   21.012704   16.148647   23.003891
Pt   20.979019   16.200752   25.893114
Pt   23.904871   16.192216   17.154887
Pt   23.886151   16.150242   20.045682
Pt   23.880206   16.153755   23.008940
Pt   23.886353   16.204312   25.898913
Pt   26.744393   16.221603   17.238103
Pt   26.768119   16.186647   20.084133
Pt   26.763090   16.191244   22.982328
Pt   26.728838   16.236346   25.828099
Pt   27.640979   18.918504   17.157113
Pt   27.684184   18.921108   20.047821
Pt   27.680335   18.926377   23.010674
Pt   27.628589   18.935369   25.900407
Pt   28.529760   21.679410   17.144755
Pt   28.566301   21.650695   20.037590
Pt   28.561331   21.656537   23.007292
Pt   28.520885   21.704627   25.895875
Pt   31.678825   25.188943   18.650477
Pt   31.770816   25.209045   21.498375
Pt   31.628998   25.199442   24.283282
Pt   29.317909   26.906817   15.838625
Pt   29.381105   26.822297   18.631541
Pt   29.409327   26.845096   21.552687
Pt   29.398948   26.876133   24.428104
Pt   27.050531   28.557372   15.738595
Pt   27.040088   28.525701   18.586948
Pt   27.048328   28.528936   21.606956
Pt   27.055604   28.545610   24.463779
Pt   24.716661   30.249493   15.771225
Pt   24.704582   30.247656   18.639360
Pt   24.708280   30.248913   21.574950
Pt   24.727124   30.242218   24.451148
Pt   22.411480   31.840841   15.915968
Pt   22.398981   31.984474   18.677713
Pt   22.401387   31.983002   21.554632
Pt   22.419295   31.834294   24.316284
Pt   20.079067   30.255259   15.764515
Pt   20.063688   30.266882   18.658076
Pt   20.062417   30.259100   21.574578
Pt   20.085537   30.237709   24.469056
Pt   17.732473   28.552192   15.758640
Pt   17.724954   28.562192   18.633304
Pt   17.711203   28.560387   21.591469
Pt   17.759220   28.528312   24.487344
Pt   15.412457   26.851761   15.767124
Pt   15.419027   26.838991   18.668637
Pt   15.392972   26.866110   21.571491
Pt   15.414787   26.810356   24.475960
Pt   13.190550   25.110299   15.920931
Pt   13.051990   25.161226   18.687312
Pt   13.049716   25.152809   21.547370
Pt   13.182698   25.068016   24.317834
Pt   14.005206   22.425382   15.767190
Pt   14.007548   22.431107   18.636074
Pt   14.000691   22.423010   21.571781
Pt   14.000419   22.395784   24.446352
Pt   14.907076   19.688789   15.729945
Pt   14.936343   19.685010   18.579407
Pt   14.927467   19.674862   21.600912
Pt   14.907424   19.669768   24.457356
Pt   15.789165   17.029428   15.829377
Pt   15.846474   16.941216   18.622354
Pt   15.812928   16.919058   21.545094
Pt   15.784307   16.937827   24.420657
Pt   16.702933   14.257446   18.639993
Pt   16.651876   14.175320   21.489783
Pt   16.702261   14.306582   24.276249
Pt   19.549087   14.236258   18.560234
Pt   19.586416   14.186359   21.515000
Pt   19.523988   14.247296   24.461207
Pt   22.454324   14.258383   18.554006
Pt   22.447163   14.154896   21.525781
Pt   22.436991   14.267783   24.495882
Pt   25.354911   14.237751   18.595010
Pt   25.309871   14.192459   21.533479
Pt   25.342012   14.247884   24.472452
Pt   28.154322   14.285364   18.744804
Pt   28.232612   14.175610   21.540225
Pt   28.143476   14.296022   24.334799
Pt   29.055673   16.937801   18.596872
Pt   29.110667   16.965188   21.535576
Pt   29.045561   16.950098   24.474604
Pt   29.923175   19.707997   18.558047
Pt   30.021985   19.680428   21.529928
Pt   29.915032   19.724062   24.499668
Pt   30.832321   22.469979   18.567220
Pt   30.865667   22.415528   21.521141
Pt   30.825300   22.493449   24.466300
Pt   31.555771   27.668256   17.316534
Pt   31.732016   27.626666   20.074582
Pt   31.618651   27.634752   22.910736
Pt   29.357534   29.333093   17.184990
Pt   29.329518   29.251134   20.089150
Pt   29.365845   29.307940   23.008224
Pt   27.044966   30.990246   17.192956
Pt   27.012948   30.924290   20.102137
Pt   27.054007   30.974800   23.022251
Pt   24.747884   32.595110   17.281316
Pt   24.720057   32.700904   20.112665
Pt   24.755807   32.587074   22.945024
Pt   20.079553   32.588468   17.261665
Pt   20.084021   32.695783   20.123702
Pt   20.080388   32.575011   22.980285
Pt   17.752525   30.971667   17.176503
Pt   17.729685   30.978656   20.123393
Pt   17.755351   30.959561   23.054816
Pt   15.438002   29.253463   17.211600
Pt   15.361363   29.291663   20.060410
Pt   15.447021   29.253268   23.083337
Pt   13.230894   27.515264   17.280969
Pt   13.107920   27.585005   20.123173
Pt   13.171858   27.519658   22.992464
Pt   11.761085   23.107410   17.278436
Pt   11.661312   23.158102   20.107613
Pt   11.755794   23.085397   22.936419
Pt   12.588792   20.431185   17.183772
Pt   12.656496   20.436478   20.093452
Pt   12.590897   20.406867   23.012510
Pt   13.462736   17.725607   17.172884
Pt   13.545669   17.723296   20.078427
Pt   13.475861   17.703139   22.997810
Pt   14.380381   15.127143   17.304022
Pt   14.362845   14.944063   20.062332
Pt   14.386219   15.053232   22.900212
Pt   18.175940   12.350085   20.076522
Pt   18.159286   12.352841   22.935938
Pt   21.015187   12.320719   19.946106
Pt   21.003125   12.325958   23.098577
Pt   23.881350   12.316460   19.964290
Pt   23.872045   12.322999   23.101989
Pt   26.715954   12.334547   20.117117
Pt   26.709019   12.340453   22.964071
Pt   30.449443   15.058515   20.118981
Pt   30.443842   15.065445   22.966404
Pt   31.333457   17.753220   19.967719
Pt   31.327899   17.762303   23.106791
Pt   32.205664   20.485212   19.951734
Pt   32.202300   20.496348   23.105175
Pt   33.045133   23.199546   20.085552
Pt   33.045898   23.214441   22.943030
Pt   31.536209   30.013802   18.717000
Pt   31.534156   29.985952   21.477004
Pt   29.297807   31.672970   18.715791
Pt   29.302308   31.653145   21.495362
Pt   27.011810   33.258145   18.725711
Pt   27.017638   33.246446   21.496344
Pt   17.819061   33.307942   18.679225
Pt   17.811513   33.290679   21.576052
Pt   15.516472   31.661319   18.636379
Pt   15.439842   31.609917   21.579079
Pt   15.665493   33.828143   20.133523
Pt   13.265756   29.835626   21.646214
Pt   10.435050   21.148188   18.714029
Pt   10.438933   21.132696   21.484117
Pt   11.249352   18.490063   18.701447
Pt   11.261753   18.474329   21.480627
Pt   12.149331   15.854809   18.702024
Pt   12.172606   15.844079   21.462182
Pt   19.671767   10.627537   21.518646
Pt   22.437018   10.611322   21.532017
Pt   25.203657   10.609894   21.540716
Pt   32.551845   15.971447   21.544803
Pt   33.395787   18.607069   21.537944
Pt   34.226108   21.245847   21.526371
