309
Generated with con2xyz
Pt   12.357638   16.673427   20.812608
Pt   14.595059   14.998859   20.725824
Pt   11.859013   18.488122   18.702155
Pt   10.205298   18.400760   20.892899
Pt   11.470416   20.462775   16.716989
Pt   9.768413   20.251063   18.888380
Pt   9.595791   22.249491   20.787228
Pt   11.761550   20.616516   20.699979
Pt   11.215223   22.560351   18.589278
Pt   10.038477   20.400164   22.791438
Pt   12.022459   20.765273   24.686072
Pt   11.500165   22.716745   22.711697
Pt   11.114915   24.545679   20.593915
Pt   16.847336   13.340983   20.637541
Pt   19.103019   11.711584   20.546974
Pt   16.344431   15.122682   18.547167
Pt   16.632222   15.285437   22.626148
Pt   13.645321   18.731236   16.547446
Pt   15.904329   17.029716   16.474260
Pt   15.456612   18.961842   14.417696
Pt   14.094523   16.795849   18.634103
Pt   13.946403   18.863530   20.618068
Pt   16.196474   17.180462   20.527976
Pt   15.734748   19.092309   18.420424
Pt   14.379397   16.954281   22.717145
Pt   12.142997   18.644814   22.824030
Pt   16.477097   17.345319   24.581556
Pt   16.023885   19.249676   22.522877
Pt   16.301226   19.418295   26.521967
Pt   15.099378   20.926388   12.456845
Pt   13.271784   20.692255   14.579023
Pt   13.011726   22.768524   16.434200
Pt   15.291578   21.057149   16.352623
Pt   14.832618   22.995882   14.301823
Pt   13.484522   20.829402   18.496721
Pt   13.305293   22.948370   20.503571
Pt   15.589058   21.211543   20.412831
Pt   15.100367   23.164701   18.305777
Pt   13.769997   20.985329   22.622573
Pt   13.576326   23.075984   24.575229
Pt   15.854810   21.362966   24.469400
Pt   15.387310   23.319231   22.408651
Pt   14.210585   19.039390   24.685969
Pt   14.102203   21.142283   26.529878
Pt   15.669394   23.452578   26.413268
Pt   14.651149   25.065128   16.248918
Pt   12.828717   24.846944   18.408036
Pt   12.733987   26.811948   20.395032
Pt   14.938413   25.230462   20.301834
Pt   14.467308   27.113085   18.211072
Pt   13.112459   24.998687   22.494258
Pt   15.219135   25.369173   24.361706
Pt   14.747691   27.259291   22.294213
Pt   14.375455   29.058925   20.196173
Pt   21.355372   10.110522   20.454180
Pt   23.610549   8.730363   20.351649
Pt   20.893515   11.840948   18.343496
Pt   21.186032   12.009377   22.460887
Pt   18.177823   15.350016   16.385318
Pt   20.471277   13.692713   16.279111
Pt   20.032263   15.568916   14.239772
Pt   18.611564   13.469103   18.454456
Pt   18.469636   15.507838   20.436153
Pt   20.756226   13.853450   20.343272
Pt   20.307298   15.722550   18.239094
Pt   18.901117   13.635317   22.537169
Pt   18.753889   15.675966   24.488125
Pt   21.049393   14.022914   24.406414
Pt   20.599176   15.889089   22.330730
Pt   20.891712   16.055130   26.332428
Pt   17.294003   19.180422   12.307500
Pt   19.578046   17.466797   12.218781
Pt   19.167111   19.420838   10.290426
Pt   17.732034   17.250252   14.345182
Pt   17.562121   19.320704   16.269615
Pt   19.860477   17.620848   16.178319
Pt   19.409726   19.542393   14.147405
Pt   18.013216   17.398779   18.331471
Pt   17.869826   19.505874   20.318302
Pt   20.169031   17.816544   20.222748
Pt   19.715819   19.731299   18.144700
Pt   18.304917   17.561426   22.425569
Pt   18.137094   19.633955   24.375272
Pt   20.436084   17.947547   24.277571
Pt   20.003285   19.891362   22.185226
Pt   18.589948   17.727070   26.418856
Pt   18.408205   19.795482   28.339396
Pt   20.724362   18.099264   28.243202
Pt   20.265124   20.015786   26.211586
Pt   16.201694   21.519871   28.357469
Pt   16.976942   21.154046   10.431731
Pt   16.689446   23.240017   12.178897
Pt   19.026391   21.526447   12.129180
Pt   18.619926   23.415039   10.168211
Pt   17.128035   21.289079   14.218549
Pt   16.934287   23.394177   16.154336
Pt   19.263902   21.670722   16.094689
Pt   18.810587   23.633727   14.032952
Pt   17.414511   21.439672   18.242616
Pt   17.245490   23.525158   20.204680
Pt   19.553232   21.824239   20.103229
Pt   19.097485   23.759061   18.031364
Pt   17.701172   21.592965   22.282220
Pt   17.502469   23.698292   24.262871
Pt   19.834581   21.977274   24.135695
Pt   19.377201   23.908049   22.072307
Pt   17.962288   21.742252   26.302590
Pt   17.777904   23.830923   28.232781
Pt   20.076935   22.120689   28.115693
Pt   19.632127   24.080798   26.100159
Pt   18.310986   21.896254   30.165932
Pt   20.533739   20.155718   30.140685
Pt   19.898489   24.226892   30.036380
Pt   18.368697   25.474245   12.068051
Pt   16.490719   25.303499   14.108118
Pt   16.311873   27.347177   16.044937
Pt   18.635270   25.697882   15.958602
Pt   18.188912   27.515119   13.981878
Pt   16.761472   25.461443   18.107052
Pt   16.602485   27.509132   20.097811
Pt   18.927939   25.826265   19.998667
Pt   18.463760   27.747522   17.911336
Pt   17.048456   25.614344   22.199383
Pt   16.882838   27.636397   24.163245
Pt   19.183441   25.995623   24.053541
Pt   18.731219   27.893588   21.992943
Pt   17.336837   25.748330   26.203406
Pt   19.471180   26.139504   28.033010
Pt   19.027420   28.024547   26.017048
Pt   18.023622   29.533331   15.910095
Pt   16.132685   29.369819   18.001131
Pt   16.033683   31.281685   19.995959
Pt   18.308173   29.783404   19.898509
Pt   17.865036   31.520568   17.845751
Pt   16.403225   29.492609   22.100184
Pt   18.579631   29.880980   23.992081
Pt   18.073071   31.703282   21.968123
Pt   17.796026   33.324813   19.853420
Pt   22.779519   12.148702   16.241379
Pt   23.211259   10.328593   18.279719
Pt   23.076886   12.235786   20.245632
Pt   25.353469   10.710671   20.147309
Pt   24.965543   12.454901   18.031124
Pt   23.498506   10.494337   22.321876
Pt   23.349400   12.475973   24.245658
Pt   25.259112   12.623853   22.148209
Pt   21.902549   15.880937   12.184410
Pt   22.342763   13.999956   14.207344
Pt   22.192696   15.955984   16.083216
Pt   24.510169   14.303032   15.968756
Pt   24.065065   16.181245   13.930224
Pt   22.635800   14.078161   18.143201
Pt   22.476808   16.147546   20.127946
Pt   24.807128   14.468352   20.032748
Pt   24.364514   16.338682   17.929146
Pt   22.927068   14.244796   22.232114
Pt   22.767548   16.285177   24.175357
Pt   25.088449   14.637361   24.095626
Pt   24.651801   16.508271   22.017608
Pt   23.193950   14.486617   26.164160
Pt   23.030909   16.521382   28.076447
Pt   24.924896   16.673132   26.022791
Pt   21.453378   17.798300   10.250787
Pt   21.292602   19.795084   12.047464
Pt   23.629089   18.088195   11.905516
Pt   23.124133   20.016074   9.984147
Pt   21.747802   17.854333   14.042234
Pt   21.580523   19.958254   15.993103
Pt   23.918087   18.238371   15.869585
Pt   23.472549   20.164844   13.840832
Pt   22.029958   18.041106   18.049926
Pt   21.864975   20.129168   20.003005
Pt   24.174951   18.432635   19.909003
Pt   23.724576   20.356567   17.828875
Pt   22.316302   18.207033   22.086428
Pt   22.149665   20.280722   24.035577
Pt   24.487509   18.571198   23.963938
Pt   24.010487   20.513095   21.866600
Pt   22.602629   18.338325   26.104882
Pt   22.432403   20.393945   28.015355
Pt   24.758636   18.719764   27.935911
Pt   24.320510   20.641882   25.900334
Pt   22.861208   18.566049   29.975813
Pt   22.676934   20.644838   31.785517
Pt   24.603115   20.782962   29.833815
Pt   20.816259   21.639131   9.938241
Pt   20.694334   23.891551   11.903794
Pt   22.953031   22.112844   11.830472
Pt   21.134985   21.920782   13.982390
Pt   20.975604   24.029420   15.854334
Pt   23.279678   22.301596   15.753983
Pt   23.293633   22.641415   9.173237
Pt   21.413039   22.061668   17.924581
Pt   21.240985   24.141742   19.886740
Pt   23.557322   22.451100   19.774210
Pt   23.098399   24.400722   17.698557
Pt   21.697083   22.211275   21.961049
Pt   21.525839   24.292612   23.920586
Pt   23.838746   22.597953   23.819085
Pt   23.385405   24.524510   21.741972
Pt   21.976812   22.362158   25.969987
Pt   21.796986   24.474687   27.906361
Pt   24.150125   22.749688   27.806501
Pt   23.688727   24.707876   25.787383
Pt   22.245515   22.503980   29.852387
Pt   22.075347   24.497039   31.688959
Pt   24.302326   22.868060   31.591092
Pt   23.967594   24.856370   29.730862
Pt   20.449346   22.273493   31.880321
Pt   20.489042   25.960765   13.821597
Pt   20.329177   27.985035   15.737537
Pt   22.829203   24.302100   13.695609
Pt   20.796257   26.091059   17.802140
Pt   20.636609   28.136590   19.760841
Pt   22.941714   26.467670   19.649617
Pt   22.485317   28.359990   17.599074
Pt   21.068977   26.206790   21.852822
Pt   20.904274   28.276063   23.835389
Pt   23.234423   26.618047   23.732236
Pt   22.772329   28.511731   21.647108
Pt   21.352038   26.379372   25.883333
Pt   21.194514   28.329534   27.767325
Pt   23.506658   26.765883   27.724007
Pt   23.062405   28.652278   25.695508
Pt   21.634138   26.437494   29.773687
Pt   20.181587   29.982231   17.667978
Pt   20.093054   31.966878   19.597818
Pt   22.362023   30.369995   19.558804
Pt   20.446165   30.164175   21.755283
Pt   20.315813   32.046892   23.721054
Pt   22.627183   30.528483   23.647487
Pt   22.147453   32.285990   21.570384
Pt   20.754818   30.199616   25.747422
Pt   19.840053   33.690981   21.632930
Pt   27.021811   12.904029   19.941520
Pt   26.197117   16.564484   15.772698
Pt   26.655024   14.684025   17.838895
Pt   26.490555   16.732010   19.820640
Pt   28.678213   15.125225   19.737135
Pt   28.314815   16.934859   17.635056
Pt   26.943828   14.856860   21.921511
Pt   26.770880   16.903032   23.871827
Pt   28.600999   17.116825   21.710469
Pt   25.263314   20.407581   11.732739
Pt   25.755526   18.470493   13.722971
Pt   25.593571   20.559522   15.667405
Pt   27.864882   18.837436   15.560746
Pt   27.363052   20.732409   13.593064
Pt   26.046855   18.626405   17.718418
Pt   25.847798   20.745400   19.684189
Pt   28.151948   19.019603   19.605793
Pt   27.703269   20.953326   17.506916
Pt   26.326370   18.793901   21.799505
Pt   26.159152   20.874001   23.751732
Pt   28.423715   19.182365   23.661316
Pt   27.967923   21.089564   21.583824
Pt   26.604427   18.960464   25.804414
Pt   26.444724   21.034347   27.728933
Pt   28.261483   21.263469   25.605614
Pt   23.231299   24.735147   10.944513
Pt   25.176832   22.501327   13.612734
Pt   27.294323   22.886682   15.424097
Pt   25.413864   22.701419   17.573691
Pt   25.244195   24.786446   19.518222
Pt   27.502695   23.086915   19.417306
Pt   27.089786   25.038845   17.312001
Pt   25.679511   22.828869   21.639166
Pt   25.528103   24.936776   23.631575
Pt   27.797845   23.209265   23.539279
Pt   27.333844   25.159135   21.429902
Pt   25.982685   22.981377   25.685473
Pt   25.814142   25.075453   27.624472
Pt   28.001744   23.343084   27.463683
Pt   27.626654   25.304075   25.498087
Pt   26.177943   23.110458   29.573674
Pt   25.317246   25.071040   12.755358
Pt   21.125818   24.214518   9.276137
Pt   24.912445   24.658574   15.535208
Pt   24.771500   26.706019   17.498723
Pt   24.628034   28.737940   19.455248
Pt   26.891880   27.070139   19.342390
Pt   22.621058   26.344418   15.665074
Pt   25.064318   26.839534   21.532058
Pt   24.911216   28.885703   23.523197
Pt   27.171023   27.227284   23.419294
Pt   26.667726   29.023570   21.341690
Pt   25.353204   26.989927   25.582654
Pt   24.411088   30.670463   21.456153
Pt   30.307966   17.370531   19.533624
Pt   29.440796   21.124319   15.420053
Pt   29.951781   19.209338   17.415527
Pt   29.786882   21.341218   19.389348
Pt   31.913935   19.618812   19.327350
Pt   29.340169   23.288058   17.295172
Pt   30.230457   19.402548   21.504945
Pt   30.054797   21.480547   23.460968
Pt   31.802158   21.733166   21.296746
Pt   27.244172   25.406549   14.571289
Pt   29.141092   25.381341   19.239781
Pt   31.356974   23.660404   19.208753
Pt   29.555745   23.416800   21.339925
Pt   29.415296   25.548020   23.346392
Pt   31.504221   23.794293   23.179041
Pt   31.070845   25.651217   21.170452
Pt   29.803043   23.570964   25.334363
Pt   25.362872   23.053047   10.910062
Pt   28.911835   27.360093   21.236930
Pt   33.306966   21.857606   19.114220
Pt   31.470242   21.529313   17.243389
