309
Generated with con2xyz
Pt   17.398704   16.020881   12.741468
Pt   22.887467   20.437937   13.859937
Pt   15.999566   14.095323   14.237055
Pt   20.823899   19.618471   18.347951
Pt   21.022823   19.509404   21.235573
Pt   16.652746   21.109752   24.533764
Pt   21.613635   19.178532   29.669401
Pt   22.658197   20.536667   11.090443
Pt   19.199543   17.741265   16.931651
Pt   23.075827   20.313452   16.753022
Pt   25.520973   20.917251   18.058495
Pt   21.648538   24.146777   27.090139
Pt   29.667556   14.776438   19.016707
Pt   21.635362   21.650895   28.439956
Pt   20.649035   24.691241   12.839814
Pt   20.438242   22.304951   11.313754
Pt   18.635653   20.415196   19.982787
Pt   18.220374   20.636118   14.194811
Pt   19.040141   22.722439   24.457267
Pt   21.442782   21.798373   25.668924
Pt   18.818235   17.987030   11.267163
Pt   18.239401   23.153533   12.868286
Pt   18.065832   20.736291   11.418609
Pt   21.040101   15.393993   24.015215
Pt   16.464694   21.210552   21.633282
Pt   23.853294   19.881599   28.217464
Pt   14.304554   24.511053   21.886969
Pt   16.598453   18.773807   12.814127
Pt   20.623212   19.715030   15.471881
Pt   21.869861   17.722418   13.836617
Pt   17.215590   18.435084   21.474628
Pt   20.013681   17.332456   28.383346
Pt   19.616458   13.432311   25.431287
Pt   17.603417   18.221741   27.222614
Pt   21.661074   17.866981   11.061514
Pt   20.421546   19.827692   12.605084
Pt   22.258469   17.514070   19.621043
Pt   22.492406   13.331385   25.250960
Pt   23.329037   11.623228   17.885771
Pt   19.244357   22.601549   27.278640
Pt   18.400445   15.478632   26.973934
Pt   25.108649   21.137411   12.389275
Pt   25.356464   23.547709   13.825897
Pt   27.788067   21.638805   16.494129
Pt   26.130280   28.022284   22.585809
Pt   26.255532   11.421482   17.695548
Pt   21.473253   26.882279   23.003620
Pt   23.107905   25.339988   14.052183
Pt   20.863828   27.073267   14.380991
Pt   25.572521   25.945379   15.360044
Pt   23.478230   20.099618   22.556138
Pt   26.100397   20.599773   26.644993
Pt   21.224024   19.394287   24.112270
Pt   23.105123   22.848929   15.356479
Pt   20.844564   24.618860   15.612690
Pt   18.875866   25.257160   20.147950
Pt   18.858894   22.802846   21.542299
Pt   21.454231   24.296580   24.306154
Pt   20.632216   22.235356   14.085604
Pt   18.649995   22.907430   18.595566
Pt   18.435673   20.514741   17.080414
Pt   12.245393   25.239182   23.442940
Pt   23.916992   24.914089   25.593702
Pt   14.479117   24.410212   24.788938
Pt   13.712318   22.349141   14.691421
Pt   18.454549   25.544527   14.387179
Pt   11.631920   23.064562   19.164055
Pt   14.545253   26.823751   23.366101
Pt   18.841077   20.302699   22.884902
Pt   14.495610   21.893520   26.043929
Pt   14.873359   19.349835   20.205482
Pt   13.869648   22.244079   17.489689
Pt   14.267595   22.016053   23.252442
Pt   19.077445   9.890135   19.537122
Pt   15.987863   16.369596   25.820059
Pt   19.260204   20.080789   28.548541
Pt   16.774484   18.645900   15.643832
Pt   21.697503   13.776066   13.706243
Pt   20.833815   22.109550   16.974260
Pt   17.528715   11.750583   18.265256
Pt   21.243952   15.307453   26.845006
Pt   15.177069   11.900694   24.142406
Pt   15.176472   16.796693   14.274563
Pt   23.107611   15.784120   12.326991
Pt   25.785802   16.251664   16.384237
Pt   17.987637   15.675045   21.280673
Pt   24.094352   15.237388   26.571607
Pt   23.741819   11.372004   23.660961
Pt   26.450196   11.341394   20.505942
Pt   23.311683   15.638978   15.105582
Pt   20.824018   15.525916   21.099612
Pt   23.149119   11.708179   14.960965
Pt   19.602338   17.530128   22.714141
Pt   29.796070   14.797122   21.864574
Pt   24.138376   18.448039   12.278938
Pt   24.343571   18.330721   15.105248
Pt   26.790922   18.930757   16.407090
Pt   25.941281   20.709702   23.867820
Pt   21.426406   19.283267   26.979920
Pt   23.697466   19.996152   25.442914
Pt   27.802222   24.147264   15.129216
Pt   27.557998   21.734320   13.702364
Pt   27.618017   13.957757   23.438714
Pt   28.195649   26.423880   19.540328
Pt   24.516495   18.213438   18.024392
Pt   25.334713   21.039079   15.160045
Pt   16.865393   26.013118   24.677534
Pt   23.285391   22.705589   18.265914
Pt   29.969876   22.321331   15.066541
Pt   21.656532   26.585861   25.726550
Pt   23.319185   25.228499   16.884524
Pt   21.037142   22.017271   19.884406
Pt   23.907815   22.401751   26.940030
Pt   23.717594   22.520953   24.119553
Pt   27.391840   18.622635   25.120795
Pt   21.046313   24.495638   18.510548
Pt   23.751594   29.879194   19.997434
Pt   16.920593   28.409760   23.254968
Pt   19.074605   27.645061   21.668299
Pt   22.899938   22.950088   12.533281
Pt   18.903707   30.126711   17.524110
Pt   23.488249   22.602599   21.210804
Pt   23.966558   29.683255   22.717162
Pt   19.262279   25.109417   25.932769
Pt   16.052533   23.958012   14.493725
Pt   18.869978   27.777085   18.811434
Pt   16.494610   23.684510   20.258633
Pt   16.878634   20.990423   27.304314
Pt   10.236294   21.142042   17.777228
Pt   12.240914   20.392338   16.070648
Pt   13.876769   24.761010   16.132357
Pt   10.356064   20.983368   20.579638
Pt   11.823627   22.947338   21.972490
Pt   12.070165   15.455814   23.079075
Pt   18.984370   17.842794   14.045765
Pt   15.777675   16.481348   22.976051
Pt   12.990155   17.626616   15.895255
Pt   15.014968   19.232626   23.147429
Pt   19.031055   20.200961   25.779466
Pt   11.682023   15.771390   17.414809
Pt   15.607772   16.566640   20.022895
Pt   19.396897   17.643349   19.816176
Pt   16.046420   21.441702   15.823809
Pt   19.797277   17.409517   25.608046
Pt   20.245692   15.864482   12.453181
Pt   20.621360   11.513831   21.005777
Pt   14.609316   19.452106   17.272592
Pt   25.167768   13.355779   22.144328
Pt   16.568174   13.713022   22.736809
Pt   24.770749   13.561841   16.397209
Pt   20.282399   11.835953   15.190895
Pt   22.059462   17.614462   16.732638
Pt   24.952517   9.563795   21.950552
Pt   22.676762   17.283309   25.402270
Pt   25.984517   11.658257   14.922926
Pt   14.418439   19.596166   14.429876
Pt   20.410284   11.637796   18.017959
Pt   22.270501   13.418587   22.405497
Pt   25.361678   13.276052   24.954062
Pt   24.538146   9.769435   16.338959
Pt   30.662972   17.444546   19.039245
Pt   22.458368   17.402374   22.514399
Pt   23.681918   15.419823   20.893532
Pt   26.388693   15.906944   25.071565
Pt   28.051843   16.957578   14.853787
Pt   24.958866   17.990998   23.853085
Pt   21.867042   13.644707   16.558798
Pt   27.200268   18.705718   22.279057
Pt   22.850917   17.209824   28.180073
Pt   26.593353   19.053784   13.572212
Pt   29.406104   19.427742   20.637367
Pt   30.394832   17.590612   16.219729
Pt   29.637837   19.334383   23.537963
Pt   30.548499   22.016830   23.414364
Pt   25.765222   25.823216   18.249386
Pt   23.712844   27.449043   21.333271
Pt   23.720679   25.014757   22.761578
Pt   28.177032   23.920263   20.888874
Pt   30.302707   22.257896   17.826936
Pt   25.967949   25.712810   21.112226
Pt   26.180516   25.621896   24.002424
Pt   27.990191   21.529537   19.374758
Pt   23.518585   27.576777   18.476265
Pt   25.714099   23.286988   19.599165
Pt   28.406478   23.827242   23.783708
Pt   25.958097   23.231458   22.534101
Pt   23.322356   27.719235   15.582680
Pt   27.948149   26.454142   16.716762
Pt   25.971424   28.189844   19.763833
Pt   21.475914   29.324878   21.570289
Pt   23.956003   27.372309   24.204565
Pt   21.263112   26.904582   20.071037
Pt   23.485958   25.058917   19.816589
Pt   21.059829   27.002241   17.176103
Pt   18.636867   25.432980   17.220668
Pt   16.541038   28.631575   17.606131
Pt   18.665925   27.923681   15.917589
Pt   18.427791   23.052048   15.690839
Pt   15.889278   21.546215   13.045124
Pt   16.687663   28.586765   20.438082
Pt   19.240017   27.568370   24.549171
Pt   16.261181   21.318205   18.717787
Pt   16.252836   23.855700   17.327955
Pt   19.061317   25.212767   23.096954
Pt   19.215062   29.881778   23.064745
Pt   10.921254   18.439492   17.598493
Pt   14.065040   22.128552   20.370482
Pt   15.216509   19.137339   25.983461
Pt   16.855703   23.506127   26.040808
Pt   11.576306   23.129797   16.383857
Pt   11.042618   18.276943   20.425268
Pt   14.310646   27.018206   20.546939
Pt   17.749977   11.635366   21.151781
Pt   13.893602   14.652813   18.589891
Pt   20.235721   19.933657   9.914921
Pt   17.394294   18.326883   24.394944
Pt   18.181706   15.554717   24.194610
Pt   17.563467   15.867424   15.536579
Pt   12.150242   22.787071   24.730604
Pt   10.618494   20.908646   23.379690
Pt   19.410675   13.525757   22.571711
Pt   18.993706   13.756093   16.807557
Pt   14.187006   14.640385   21.496110
Pt   11.810757   15.526957   20.253841
Pt   13.579339   17.276668   24.561410
Pt   16.365434   13.771286   19.863342
Pt   13.776158   14.937923   15.773940
Pt   17.770271   15.753026   18.400230
Pt   22.218235   9.642080   22.185444
Pt   21.815673   9.865838   16.490585
Pt   12.641789   12.821230   20.222136
Pt   14.362615   14.540367   24.415658
Pt   20.877383   11.496015   23.827350
Pt   17.475259   12.056678   15.411857
Pt   21.891286   9.670517   19.341641
Pt   17.011892   18.539343   18.546958
Pt   19.181321   13.587703   19.686674
Pt   28.373937   12.322205   16.147185
Pt   22.028581   13.549106   19.486343
Pt   26.498196   11.357442   23.297766
Pt   28.423462   16.733314   20.599634
Pt   26.932443   18.831718   19.348804
Pt   24.561602   13.710392   13.597444
Pt   23.529190   11.512002   20.740759
Pt   25.722795   20.809808   20.973572
Pt   25.583876   16.360174   13.542820
Pt   28.235436   16.852098   17.741145
Pt   30.783673   17.389264   21.875481
Pt   25.140124   17.894881   26.680579
Pt   29.041224   19.649766   14.877539
Pt   30.496085   22.154909   20.635581
Pt   31.708878   20.022834   21.882048
Pt   23.280166   20.210976   19.655667
Pt   31.323217   20.223816   16.275415
Pt   30.491197   24.472283   22.127055
Pt   21.254107   24.420055   21.440135
Pt   25.551097   23.450175   16.662736
Pt   30.096969   24.677239   16.522871
Pt   26.162994   23.113536   25.368679
Pt   23.507984   29.926908   17.189953
Pt   28.350838   26.244399   22.363964
Pt   21.079519   29.410760   15.971104
Pt   21.280236   29.448260   18.752818
Pt   16.260746   26.355593   16.031972
Pt   14.105312   24.628313   19.026809
Pt   19.055573   30.078982   20.338769
Pt   21.238560   21.897093   22.779045
Pt   16.666356   23.627762   23.202817
Pt   16.471568   26.226696   18.919533
Pt   11.856994   25.473026   17.838583
Pt   13.398718   17.382893   21.671540
Pt   16.669748   26.108047   21.783152
Pt   14.155648   27.057125   17.715548
Pt   12.666167   20.141209   21.829054
Pt   12.017927   25.429649   20.646367
Pt   12.472891   20.253449   18.967416
Pt   20.431721   15.725041   15.289351
Pt   16.779107   13.632695   25.571492
Pt   12.833682   20.038219   24.730234
Pt   15.361558   16.658472   17.139898
Pt   13.211912   17.482311   18.810640
Pt   11.309532   18.204069   23.246637
Pt   16.075749   13.821081   16.988832
Pt   17.975032   11.697952   23.999897
Pt   12.871855   12.774779   22.955572
Pt   18.819952   13.889540   13.913385
Pt   14.931246   11.847147   21.390352
Pt   27.502106   13.978248   20.619086
Pt   25.948881   16.127506   19.339035
Pt   24.702325   9.593856   19.155004
Pt   14.734883   12.001196   18.666040
Pt   26.208311   16.007193   22.224798
Pt   27.034238   14.287865   14.809134
Pt   23.915390   15.309141   23.792153
Pt   23.496012   15.520984   18.012450
Pt   24.994562   13.445461   19.290826
Pt   20.624576   15.632975   18.210298
Pt   28.626241   12.190478   18.872419
Pt   29.399642   14.918287   16.191435
Pt   27.216785   14.192386   17.719555
Pt   27.976779   24.027460   18.029430
Pt   31.585835   20.077904   19.072566
Pt   28.345610   21.314961   25.054086
Pt   24.718661   18.107453   20.952153
Pt   28.187159   21.423616   22.256117
Pt   28.641310   16.634729   23.515226
Pt   29.210354   19.535053   17.776936
Pt   25.718321   28.232052   16.943549
Pt   30.334568   24.645951   19.325270
