309
Generated with con2xyz
Pt   10.610411   17.239914   22.393269
Pt   12.299207   15.043702   22.441391
Pt   12.185572   16.756452   20.209727
Pt   12.606762   17.161262   24.264560
Pt   10.561540   20.776866   18.053127
Pt   12.158730   18.552097   18.003495
Pt   12.218673   20.385392   15.870387
Pt   10.521652   19.007202   20.222390
Pt   11.287436   23.337825   23.707826
Pt   12.628986   18.978630   22.010616
Pt   12.608439   20.776635   19.795035
Pt   10.920818   19.398553   24.141909
Pt   11.358481   21.556507   25.866129
Pt   12.981729   19.350573   26.028243
Pt   13.014717   21.175373   23.784473
Pt   13.432128   21.561977   27.696460
Pt   12.540318   22.608826   17.556675
Pt   10.890626   22.945984   19.788404
Pt   10.831250   21.180106   21.971391
Pt   11.343620   25.089999   21.528138
Pt   12.940309   24.797594   19.324798
Pt   13.003094   22.972389   21.571887
Pt   13.357725   23.411964   25.582140
Pt   13.356218   25.201766   23.380784
Pt   13.408662   26.896005   21.138635
Pt   14.084904   12.872977   22.473218
Pt   15.913931   10.791388   22.489229
Pt   15.771532   12.392431   20.274010
Pt   16.196222   12.798562   24.329309
Pt   13.944566   16.344059   18.026906
Pt   15.732396   14.164999   18.059729
Pt   15.710924   15.947613   15.847778
Pt   13.966100   14.565179   20.252624
Pt   14.368872   16.750057   22.054726
Pt   16.163573   14.567793   22.084958
Pt   16.128158   16.336587   19.829562
Pt   14.389976   14.969592   24.294349
Pt   14.788155   17.147677   26.084261
Pt   16.579552   14.968009   26.117907
Pt   16.554351   16.744127   23.911966
Pt   16.983786   17.136761   27.881406
Pt   14.007996   19.988907   13.793057
Pt   17.524478   15.555344   13.795860
Pt   18.278548   23.608753   12.854045
Pt   13.915684   18.148153   15.826483
Pt   14.325018   20.374095   17.574765
Pt   16.112249   18.128610   17.607497
Pt   16.135597   19.965923   15.425772
Pt   14.353173   18.530806   19.787891
Pt   14.827552   20.769028   21.608261
Pt   16.566413   18.554322   21.647406
Pt   16.544868   20.367168   19.395922
Pt   14.779618   18.938278   23.883904
Pt   15.154276   21.178661   25.638176
Pt   16.958813   18.939015   25.699961
Pt   16.974600   20.772630   23.458857
Pt   15.149551   19.346667   27.827639
Pt   15.592031   21.549867   29.470369
Pt   17.778081   21.533454   31.154636
Pt   17.334333   21.171051   27.427438
Pt   19.886530   23.276020   30.806886
Pt   20.022100   21.359044   12.806413
Pt   14.301734   22.209144   15.378095
Pt   14.703223   24.405954   17.136729
Pt   16.495438   22.208838   17.156735
Pt   16.477190   23.991539   14.959543
Pt   14.736150   22.611842   19.338044
Pt   15.125027   24.799375   21.171784
Pt   16.945222   22.583343   21.204986
Pt   16.885789   24.398832   18.940753
Pt   15.162234   23.020761   23.437348
Pt   15.536625   25.207519   25.199950
Pt   17.340934   23.013622   25.258944
Pt   17.312874   24.804098   23.035104
Pt   15.520651   23.402780   27.381786
Pt   17.697364   23.408191   29.151415
Pt   17.730955   25.211181   26.995385
Pt   16.866012   26.172123   16.738486
Pt   15.094001   26.581260   18.931869
Pt   15.560418   28.657249   20.743878
Pt   17.287489   26.569131   20.770814
Pt   17.266867   28.339336   18.529892
Pt   15.514107   26.981242   22.978129
Pt   17.710190   26.975304   24.807977
Pt   17.686843   28.738880   22.585488
Pt   17.740036   30.322312   20.355883
Pt   17.550202   11.977880   18.100349
Pt   19.796210   12.019103   19.914482
Pt   21.602941   11.558821   17.706148
Pt   17.654357   10.320369   20.349191
Pt   18.013501   12.428416   22.102652
Pt   21.993817   10.299398   23.903698
Pt   19.817863   10.238238   22.133112
Pt   18.065252   10.718115   24.276182
Pt   18.393794   12.788225   26.133815
Pt   20.623149   12.827482   27.837541
Pt   20.215874   12.418873   23.915317
Pt   21.021359   14.990481   29.511977
Pt   19.350943   13.433201   13.887384
Pt   19.381585   11.644151   15.993947
Pt   19.745026   19.141914   11.155358
Pt   17.515297   13.743529   15.896161
Pt   17.912078   15.937305   17.633700
Pt   19.763091   13.746746   17.663741
Pt   19.743224   15.557547   15.476215
Pt   17.936003   14.170157   19.846616
Pt   18.363774   16.368067   21.676777
Pt   20.199599   14.230092   21.693410
Pt   20.168087   15.959114   19.454492
Pt   18.364128   14.576114   23.943186
Pt   18.760586   16.739419   25.721184
Pt   20.611146   14.550252   25.744733
Pt   20.592704   16.361743   23.510814
Pt   18.791704   14.959249   27.915164
Pt   19.225871   17.164528   29.629086
Pt   19.534251   19.415886   31.231264
Pt   21.005150   16.753392   27.492872
Pt   19.567795   21.153386   29.139088
Pt   19.658718   17.296564   13.211476
Pt   17.856743   19.535764   13.202034
Pt   21.577349   16.969073   11.232859
Pt   21.895305   21.028763   10.784136
Pt   17.921799   17.750368   15.420770
Pt   18.341700   19.962648   17.231077
Pt   20.152224   17.758546   17.252607
Pt   20.087349   19.534554   14.994261
Pt   18.343690   18.150326   19.441223
Pt   18.744475   20.363956   21.235178
Pt   20.566539   18.148496   21.266534
Pt   20.551994   19.955857   19.039899
Pt   18.764262   18.558804   23.478033
Pt   19.180161   20.767751   25.273151
Pt   20.982909   18.558760   25.274042
Pt   20.958051   20.362140   23.053204
Pt   19.181387   18.923981   27.489757
Pt   21.644784   21.156199   30.888187
Pt   21.452608   18.898580   29.336753
Pt   21.424453   20.748507   27.095737
Pt   17.332239   19.317374   29.600860
Pt   25.745655   22.502452   28.361236
Pt   23.758951   18.776107   10.875088
Pt   20.173557   23.258728   10.925820
Pt   18.292803   21.772033   14.983613
Pt   20.485061   25.381973   12.536977
Pt   16.116964   21.762516   13.318027
Pt   18.676153   23.984917   16.742749
Pt   20.525774   21.750618   16.795203
Pt   20.496369   23.572870   14.565842
Pt   18.722718   22.173000   18.993903
Pt   19.111361   24.354346   20.799577
Pt   20.943594   22.157443   20.823592
Pt   20.919476   23.938089   18.577865
Pt   19.141999   22.572839   23.044188
Pt   19.532985   24.791620   24.856512
Pt   21.363726   22.575122   24.861108
Pt   21.342310   24.336512   22.630485
Pt   19.583153   23.006333   27.038693
Pt   21.775447   24.841677   26.711793
Pt   24.038051   24.687703   28.276739
Pt   21.835279   23.021082   28.880626
Pt   19.890513   25.103021   28.744577
Pt   20.877953   27.510680   14.288388
Pt   18.659536   25.792246   14.579278
Pt   19.053164   27.953789   16.360143
Pt   20.893289   25.754445   16.354081
Pt   21.263237   29.565933   16.090013
Pt   19.061680   26.148292   18.535647
Pt   19.500393   28.284571   20.371903
Pt   21.313035   26.069001   20.398674
Pt   21.289960   27.886627   18.187930
Pt   19.486405   26.552717   22.632148
Pt   19.887217   28.732139   24.390487
Pt   21.737416   26.529357   24.423856
Pt   21.707071   28.275368   22.184433
Pt   19.925742   26.944151   26.571721
Pt   25.597827   29.511944   19.620053
Pt   19.500144   30.003333   18.208976
Pt   21.682034   30.060469   19.975742
Pt   19.906289   30.380552   22.124802
Pt   22.076968   30.326938   23.882369
Pt   19.419864   9.977644   18.205402
Pt   21.582895   9.908943   19.972112
Pt   23.745750   9.966588   21.745437
Pt   21.996532   12.008573   21.726722
Pt   23.797254   11.548797   19.508045
Pt   20.237763   10.762102   26.033249
Pt   22.447652   12.354911   25.747338
Pt   24.224557   11.952233   23.571078
Pt   21.518396   15.148419   13.344994
Pt   21.574798   13.330208   15.493911
Pt   21.984532   15.515864   17.242290
Pt   23.784412   13.324606   17.283383
Pt   23.748383   15.106606   15.080901
Pt   22.013224   13.744306   19.456825
Pt   22.398616   15.951207   21.289112
Pt   24.202750   13.724075   21.322341
Pt   24.188776   15.500439   19.056063
Pt   22.443836   14.152666   23.560002
Pt   22.834463   16.319698   25.344982
Pt   24.635061   14.127278   25.357945
Pt   24.618314   15.904966   23.150968
Pt   22.848069   14.514957   27.524244
Pt   23.211750   16.705634   29.187385
Pt   25.023847   16.313101   27.140597
Pt   21.618232   18.817210   9.330983
Pt   21.911511   19.156064   12.855477
Pt   23.764452   16.898215   12.917691
Pt   25.902686   18.747617   12.612371
Pt   21.932304   17.318700   15.019627
Pt   22.332253   19.544071   16.817655
Pt   24.154934   17.297140   16.826311
Pt   24.135603   19.135764   14.630760
Pt   22.370939   17.737840   19.053685
Pt   22.765617   19.944287   20.858058
Pt   24.574797   17.728973   20.884346
Pt   24.545542   19.531829   18.640409
Pt   22.789547   18.134622   23.090118
Pt   23.167812   20.345699   24.854730
Pt   25.005733   18.097121   24.938456
Pt   24.975226   19.934100   22.687936
Pt   23.196034   18.540346   27.118716
Pt   29.270753   19.908666   26.247798
Pt   27.479208   20.305951   28.322439
Pt   30.996403   19.505751   24.080699
Pt   23.590542   20.752639   28.920086
Pt   15.735973   17.781817   13.754449
Pt   22.356967   23.212880   12.466432
Pt   24.149835   20.982866   12.478087
Pt   22.319495   21.371301   14.584264
Pt   22.738337   23.561225   16.357895
Pt   24.541963   21.360896   16.386981
Pt   24.540835   23.170176   14.225117
Pt   22.747146   21.745150   18.610316
Pt   23.152983   23.927331   20.414946
Pt   24.953290   21.734986   20.447265
Pt   24.950747   23.552069   18.177094
Pt   23.168929   22.153894   22.656112
Pt   23.579993   24.363801   24.487555
Pt   25.392687   22.171072   24.495270
Pt   25.378234   23.958407   22.277679
Pt   23.560498   22.553956   26.677376
Pt   23.961143   26.533119   26.189824
Pt   25.348266   20.335864   26.688407
Pt   25.802628   24.356227   26.247356
Pt   22.717896   25.386207   14.207928
Pt   23.112768   27.538343   15.980137
Pt   24.925984   25.342502   15.984621
Pt   23.143608   25.723983   18.150449
Pt   23.494307   27.871969   19.997949
Pt   25.340794   25.733104   20.013552
Pt   25.310279   27.511330   17.775480
Pt   23.573844   26.122952   22.251031
Pt   23.953746   28.313150   24.006125
Pt   25.763290   26.132569   24.052188
Pt   25.734269   27.905476   21.831459
Pt   22.103308   28.642422   26.026591
Pt   23.442156   29.598605   17.840528
Pt   27.422697   27.427966   19.632493
Pt   23.851976   29.975926   21.753785
Pt   25.921690   11.629283   21.349793
Pt   25.942618   15.093169   16.879418
Pt   25.964979   13.303995   19.108786
Pt   26.359117   15.490946   20.920175
Pt   28.068090   13.387990   20.950100
Pt   28.107670   15.071140   18.707971
Pt   26.391939   13.704859   23.164729
Pt   26.790820   15.894221   24.960674
Pt   28.531213   15.473520   22.769642
Pt   30.185644   18.724385   16.173176
Pt   25.945938   16.894775   14.683923
Pt   26.322836   19.121827   16.429635
Pt   28.103299   16.884004   16.474413
Pt   32.230156   18.726419   18.025734
Pt   26.344878   17.281197   18.648160
Pt   26.730869   19.523841   20.479337
Pt   28.492143   17.267304   20.521466
Pt   28.478677   19.112715   18.242939
Pt   26.776313   17.688042   22.753620
Pt   27.165179   19.925543   24.539755
Pt   30.654287   17.265887   22.389326
Pt   28.903409   19.520069   22.357607
Pt   28.938079   17.689928   24.571614
Pt   27.184583   18.091827   26.739557
Pt   32.625020   19.108769   21.886269
Pt   28.051656   18.733784   14.376948
Pt   26.335021   20.955800   14.242838
Pt   28.492316   20.943422   16.035184
Pt   26.733317   21.355597   18.206975
Pt   27.124937   23.552834   20.043464
Pt   28.884467   21.364556   20.075479
Pt   26.719586   23.153704   16.010349
Pt   27.163607   21.761413   22.308826
Pt   27.563737   23.949812   24.073660
Pt   27.577929   22.147213   26.290922
Pt   29.305606   23.556243   21.885107
Pt   25.357735   18.540764   28.798601
Pt   27.111120   25.338277   17.803812
Pt   29.199894   25.255071   19.660448
Pt   30.956680   23.070269   19.693568
Pt   27.533364   25.736326   21.853219
Pt   30.196318   15.159714   20.555336
Pt   29.328149   21.739907   24.126592
Pt   30.235094   16.859381   18.296718
Pt   30.557003   19.117201   20.126931
Pt   32.236903   16.981536   20.167374
Pt   31.048153   21.355571   21.941505
Pt   30.629292   20.952551   17.852634
Pt   28.883183   23.156563   17.832837
Pt   32.610625   20.854338   19.744856
