309
Generated with con2xyz
Pt   12.879573   20.905170   16.791090
Pt   14.422378   18.687346   17.517244
Pt   13.555476   22.410824   14.492773
Pt   12.755912   23.157524   18.494731
Pt   14.352517   24.088962   12.315037
Pt   13.517239   24.903759   16.166562
Pt   11.457646   23.173990   16.081254
Pt   13.475937   27.172218   17.861885
Pt   14.262808   26.434585   13.902973
Pt   11.420394   25.363695   17.782499
Pt   12.805397   25.539926   20.084178
Pt   15.688348   28.878309   17.985097
Pt   14.313907   28.672105   15.619353
Pt   15.991064   16.479736   18.245698
Pt   17.582035   14.293274   18.972817
Pt   16.633995   17.978801   15.972751
Pt   15.849461   18.720392   19.915279
Pt   15.836058   21.818585   12.977203
Pt   17.377310   19.573168   13.728418
Pt   18.126221   21.179462   11.489602
Pt   15.081198   20.197061   15.246024
Pt   15.020008   22.571015   16.905497
Pt   16.589580   20.318906   17.643112
Pt   17.332313   21.906794   15.367278
Pt   14.294687   20.935185   19.189005
Pt   12.202824   24.627012   13.840194
Pt   15.816736   21.043206   21.570893
Pt   16.540173   22.644956   19.324218
Pt   15.778851   23.378979   23.207960
Pt   18.910838   22.835296   9.443572
Pt   16.625633   23.458495   10.838149
Pt   16.527657   25.811654   12.377774
Pt   18.094498   23.547600   13.122380
Pt   18.833886   25.178824   10.889040
Pt   15.783229   24.182151   14.625914
Pt   15.783088   26.540422   16.309494
Pt   17.337858   24.266566   17.048973
Pt   18.071299   25.907371   14.748767
Pt   16.520720   25.010544   20.961715
Pt   14.989723   24.920373   18.585919
Pt   14.318254   25.623203   22.424509
Pt   17.267076   26.651258   18.724025
Pt   14.259157   23.290560   20.857173
Pt   15.848034   25.704343   24.764590
Pt   17.225702   28.965744   20.370181
Pt   18.799648   27.498737   12.521180
Pt   16.482111   28.139514   14.021675
Pt   16.478917   30.364486   15.731617
Pt   18.021197   28.242819   16.435354
Pt   18.741305   29.807996   14.166575
Pt   18.727158   32.005933   15.872563
Pt   14.958010   27.278778   20.237204
Pt   17.939798   30.543219   18.115912
Pt   20.978024   33.624227   16.022351
Pt   27.563568   14.822498   20.852716
Pt   19.230261   12.196098   19.695251
Pt   19.830531   13.593599   17.410361
Pt   20.669704   14.468670   23.697818
Pt   18.956025   17.344666   14.458547
Pt   20.571343   15.130510   15.182808
Pt   21.291546   16.691564   12.973290
Pt   18.216425   15.778528   16.698556
Pt   18.171138   18.089375   18.377877
Pt   19.768249   15.891728   19.107815
Pt   20.512193   17.428284   16.832053
Pt   17.429803   16.520611   20.646804
Pt   17.395726   18.818625   22.304019
Pt   19.001357   16.608015   23.053182
Pt   19.719458   18.172788   20.805979
Pt   18.962181   18.893911   24.681476
Pt   20.440547   20.555232   10.045910
Pt   21.991513   18.279845   10.769193
Pt   22.799535   19.881234   8.698386
Pt   19.682256   18.936206   12.235237
Pt   19.649821   21.260659   13.867439
Pt   21.245544   19.009175   14.594231
Pt   21.971181   20.624133   12.375177
Pt   18.910142   19.655886   16.101046
Pt   18.903629   22.013367   17.787047
Pt   20.495320   19.765251   18.527321
Pt   21.237491   21.362851   16.270953
Pt   18.120448   20.401195   20.064477
Pt   18.085918   22.730047   21.708261
Pt   19.682495   20.483523   22.450519
Pt   20.456519   22.100003   20.187714
Pt   17.360835   21.127738   23.933976
Pt   17.323425   23.457726   25.546644
Pt   18.931004   21.194946   26.288279
Pt   19.650246   22.808820   24.074997
Pt   16.487260   27.362657   22.600293
Pt   22.685317   22.255198   10.111488
Pt   21.149413   24.538427   9.441188
Pt   24.966100   21.600440   8.741215
Pt   23.475289   23.907880   8.157184
Pt   20.423009   22.911833   11.657025
Pt   20.402363   25.274215   13.250024
Pt   21.990965   22.986792   14.033499
Pt   22.760150   24.612375   11.745768
Pt   19.655390   23.632292   15.527121
Pt   19.615759   25.982320   17.183075
Pt   21.207023   23.719136   17.928815
Pt   21.956916   25.342505   15.672848
Pt   18.866920   24.362553   19.443744
Pt   18.808820   26.739059   21.101680
Pt   20.427588   24.447248   21.826360
Pt   21.171000   26.068609   19.580755
Pt   18.066223   25.093380   23.324521
Pt   18.033452   27.440389   24.946790
Pt   19.625228   25.168108   25.664744
Pt   20.371220   26.819508   23.469064
Pt   17.399073   25.776521   27.093817
Pt   18.889618   23.509830   27.875904
Pt   19.605761   27.525862   27.277475
Pt   23.419532   26.183999   9.622234
Pt   21.125149   26.859187   11.027528
Pt   21.081357   29.164741   12.654857
Pt   22.726948   26.948438   13.390987
Pt   23.387023   28.477992   11.244729
Pt   20.355813   27.599676   14.890607
Pt   20.302642   29.909773   16.576932
Pt   21.922910   27.672896   17.326944
Pt   22.671599   29.263363   15.043110
Pt   19.548488   28.342715   18.857037
Pt   19.495951   30.626708   20.519276
Pt   21.110173   28.424447   21.243902
Pt   21.845838   30.009349   19.003985
Pt   18.773354   29.047252   22.739634
Pt   20.348154   29.128978   25.101240
Pt   21.070863   30.708350   22.910044
Pt   23.344484   30.757657   12.875919
Pt   21.016449   31.453778   14.303551
Pt   23.296064   33.002285   14.521900
Pt   22.613027   31.564347   16.736855
Pt   24.978984   30.889445   15.167178
Pt   20.191094   32.173265   18.269402
Pt   21.783664   32.258408   20.709795
Pt   22.433172   33.786499   18.490594
Pt   23.254847   35.055088   16.277366
Pt   21.492384   11.572389   18.235067
Pt   25.297508   13.191664   20.708958
Pt   21.441833   13.764177   19.838003
Pt   23.005026   11.658763   20.545454
Pt   23.820626   13.022045   18.306976
Pt   20.743101   12.283792   22.006105
Pt   19.034407   14.341674   21.395798
Pt   23.027237   13.772835   22.294554
Pt   23.648533   16.134760   11.582841
Pt   22.932221   14.570430   13.777680
Pt   22.895804   16.788595   15.338097
Pt   22.207639   13.021767   15.991204
Pt   25.258762   16.138579   13.859987
Pt   22.168600   15.231793   17.562793
Pt   22.113094   17.540821   19.263386
Pt   23.768353   15.317100   20.005993
Pt   24.500496   16.860505   17.724305
Pt   21.368721   15.976871   21.554907
Pt   21.324387   18.255955   23.196354
Pt   22.956794   16.039284   23.948592
Pt   23.699979   17.595645   21.706079
Pt   20.623437   16.741512   25.333816
Pt   20.588683   19.034833   26.949542
Pt   22.915029   18.324586   25.576248
Pt   24.345143   17.739342   9.455582
Pt   24.326795   20.019327   10.945051
Pt   25.989912   17.729911   11.658575
Pt   26.682709   21.705256   10.949421
Pt   23.616345   18.366618   13.120912
Pt   23.581171   20.722066   14.757983
Pt   25.231894   18.448535   15.482170
Pt   25.948573   20.071278   13.254655
Pt   22.848029   19.116263   17.006785
Pt   22.807797   21.452257   18.674161
Pt   25.151695   20.795499   17.154714
Pt   25.869516   22.424467   14.914295
Pt   22.068877   19.849733   20.929604
Pt   22.035089   22.184258   22.570058
Pt   23.658629   19.908739   23.351181
Pt   24.384105   21.534556   21.072061
Pt   21.289674   20.560247   24.817828
Pt   21.261658   22.868493   26.419212
Pt   22.885309   20.626378   27.180123
Pt   23.628263   22.238265   24.973253
Pt   20.561561   21.334433   28.546014
Pt   20.556864   23.651243   30.051718
Pt   22.878617   22.935551   28.774387
Pt   30.928485   21.939728   13.251811
Pt   25.129153   23.985685   10.247531
Pt   28.216045   21.778791   13.416941
Pt   24.324015   22.362620   12.500984
Pt   24.286464   24.691510   14.157336
Pt   26.628874   24.035089   12.658634
Pt   27.948488   24.072321   10.282802
Pt   23.546645   23.069860   16.424706
Pt   23.528126   25.424164   18.063422
Pt   25.123657   23.151699   18.810881
Pt   25.869926   24.769187   16.560501
Pt   22.777518   23.802024   20.319278
Pt   22.746458   26.146863   21.964221
Pt   24.353704   23.885681   22.704495
Pt   25.093028   25.507509   20.453174
Pt   22.007267   24.524314   24.191131
Pt   21.984645   26.890759   25.813732
Pt   23.620347   24.594323   26.566005
Pt   24.352369   26.246222   24.361427
Pt   21.258297   25.218527   27.946139
Pt   21.231664   27.451726   29.490240
Pt   22.782129   25.278930   30.196305
Pt   23.593938   26.951742   28.180018
Pt   19.006580   25.823792   29.343369
Pt   25.081823   26.330980   11.858564
Pt   25.059675   28.641948   13.494648
Pt   27.901241   26.364623   11.836701
Pt   24.285533   27.048415   15.797979
Pt   24.266117   29.355662   17.440597
Pt   25.863339   27.134238   18.171355
Pt   28.229794   24.127030   15.041809
Pt   23.487622   27.753410   19.713648
Pt   23.446823   30.076394   21.393842
Pt   25.085950   27.848927   22.132485
Pt   25.813679   29.431140   19.871482
Pt   22.714594   28.488830   23.616022
Pt   22.671772   30.685440   25.211629
Pt   24.306289   28.559398   25.991723
Pt   25.032420   30.139225   23.792625
Pt   21.946349   29.098393   27.391608
Pt   26.628173   28.744781   15.908481
Pt   24.994181   33.097472   16.841037
Pt   26.581276   30.969448   17.631098
Pt   24.176059   31.648473   19.133774
Pt   24.110460   33.787175   20.821358
Pt   25.767648   31.703770   21.577411
Pt   26.434711   33.164407   19.328976
Pt   23.393458   32.249456   23.020336
Pt   24.748964   35.132085   18.567899
Pt   26.101870   14.651611   18.467812
Pt   28.362346   16.297597   18.610955
Pt   24.532273   14.567857   16.070673
Pt   24.421230   19.199432   19.411481
Pt   26.043984   16.955107   20.151524
Pt   26.792422   18.527917   17.871241
Pt   25.314591   15.389799   22.426275
Pt   25.254533   17.684208   24.084905
Pt   27.578888   17.036677   22.568337
Pt   28.223042   19.485273   11.779437
Pt   27.565930   17.846014   13.990313
Pt   27.523975   20.145701   15.636328
Pt   29.105028   17.907274   16.352903
Pt   31.303716   19.588733   16.589207
Pt   26.827593   16.231683   16.218331
Pt   26.717020   20.888297   19.548375
Pt   28.310956   18.618848   20.291608
Pt   29.069421   20.242259   18.007011
Pt   25.987984   19.259698   21.845588
Pt   25.951967   21.599842   23.487585
Pt   27.523372   19.354835   24.223114
Pt   28.244958   20.952241   21.979240
Pt   25.218282   19.997483   25.710942
Pt   25.203073   22.324573   27.320822
Pt   27.505262   21.693771   25.845708
Pt   29.522604   24.193956   12.508206
Pt   29.433756   21.884202   10.985748
Pt   29.877521   21.846075   15.781826
Pt   27.449278   22.493447   17.274838
Pt   27.430760   24.882570   18.925049
Pt   29.007050   22.611690   19.646212
Pt   29.735133   24.200665   17.430033
Pt   26.686257   23.243310   21.193967
Pt   26.684075   25.607652   22.859483
Pt   28.237555   23.331487   23.601651
Pt   28.999790   24.967411   21.302249
Pt   25.934368   23.964741   25.096424
Pt   25.913418   26.306628   26.727358
Pt   27.415553   24.036586   27.370313
Pt   28.213571   25.674454   25.247211
Pt   25.109780   24.663989   28.833836
Pt   29.448369   26.486583   14.146524
Pt   26.541204   19.372845   9.529880
Pt   27.816855   28.555042   13.430665
Pt   28.209930   26.528027   16.674548
Pt   28.173557   28.796947   18.364448
Pt   29.801265   26.583151   19.048808
Pt   26.592524   26.356129   14.311763
Pt   27.421045   27.201351   20.585882
Pt   27.377463   29.495619   22.283324
Pt   28.956493   27.278163   22.997696
Pt   29.616704   28.792165   20.757563
Pt   26.637847   27.912421   24.508999
Pt   28.031765   30.997043   20.045453
Pt   29.814541   16.475189   20.999114
Pt   32.409486   24.343990   17.215374
Pt   30.620038   17.958966   18.746621
Pt   30.534608   20.350805   20.410695
Pt   31.986724   18.181798   21.126496
Pt   31.415299   21.959352   18.154521
Pt   29.828921   18.719351   22.711060
Pt   29.792908   21.047334   24.343684
Pt   32.012749   20.464661   22.756489
Pt   30.953054   26.457454   16.471458
Pt   31.032874   24.237894   14.863836
Pt   32.763252   22.011925   20.592977
Pt   30.495714   22.689227   22.042828
Pt   30.507698   25.049401   23.738555
Pt   31.917084   22.766853   24.343557
Pt   31.370443   24.317383   19.774197
Pt   29.706543   23.403310   25.883242
Pt   29.802378   19.557381   14.161221
Pt   31.184068   26.565522   21.476924
Pt   32.652254   24.315390   22.191171
Pt   32.729806   19.705426   18.967746
