309
Generated with con2xyz
Pt   20.179595   19.772277   9.963504
Pt   22.849820   20.383737   13.881927
Pt   20.390983   19.701784   12.652624
Pt   20.841078   19.553420   18.390093
Pt   21.059322   19.478837   21.271466
Pt   19.053500   20.186025   25.798618
Pt   21.679068   19.292131   29.701748
Pt   22.594204   20.450685   11.112318
Pt   20.614647   19.628281   15.518488
Pt   23.061621   20.295933   16.772715
Pt   25.497198   20.977014   18.056582
Pt   21.500574   26.640188   25.651990
Pt   27.609728   14.128468   20.554093
Pt   23.895602   20.032902   28.232305
Pt   20.488161   24.566953   12.834236
Pt   20.326602   22.162551   11.336506
Pt   18.645135   20.326376   20.026748
Pt   18.418102   20.400061   17.143023
Pt   18.987933   22.695900   24.442553
Pt   21.421108   21.847184   25.662266
Pt   17.999734   20.529344   11.478245
Pt   18.119894   22.965553   12.901002
Pt   18.180326   20.472194   14.255114
Pt   21.194023   15.433598   24.110833
Pt   18.854648   20.256549   22.909028
Pt   21.631458   21.742874   28.437500
Pt   16.880290   20.905759   27.329509
Pt   20.318882   15.728760   12.545680
Pt   20.540755   15.622032   15.373562
Pt   22.123608   17.578891   16.784113
Pt   19.470713   17.564955   19.893800
Pt   18.550218   15.465217   27.081924
Pt   19.826871   13.455740   25.575952
Pt   20.119844   17.388553   28.451419
Pt   21.669742   17.755523   11.124663
Pt   21.908128   17.645545   13.897696
Pt   22.348874   17.494794   19.668966
Pt   22.688916   13.417777   25.364723
Pt   24.917481   9.609850   19.484931
Pt   19.211938   22.598532   27.273237
Pt   19.889206   17.421406   25.676200
Pt   25.035755   21.138489   12.384529
Pt   25.233957   23.563782   13.799113
Pt   25.452344   23.495700   16.635165
Pt   28.210675   26.413351   22.294682
Pt   29.773648   15.038986   19.014644
Pt   19.047972   27.476123   24.489078
Pt   22.939152   25.284861   14.018187
Pt   20.641349   26.971986   14.353528
Pt   25.406756   25.974689   15.305551
Pt   23.498588   20.154745   22.566980
Pt   26.121686   20.779058   26.640322
Pt   21.266887   19.413303   24.140395
Pt   23.010240   22.812898   15.352499
Pt   20.707834   24.527862   15.609667
Pt   18.732591   25.287362   20.143307
Pt   18.785585   22.766314   21.527923
Pt   21.579291   24.215935   27.055256
Pt   20.543805   22.128847   14.109950
Pt   16.138829   23.660225   17.354276
Pt   18.560640   22.833596   18.641868
Pt   13.965349   21.863348   20.419233
Pt   23.673850   22.604588   24.098760
Pt   16.792449   23.395646   26.051355
Pt   15.991515   21.217841   15.889967
Pt   18.293269   25.389377   14.392420
Pt   16.231261   21.154953   18.788079
Pt   16.449264   21.082076   21.653342
Pt   16.644602   20.996288   24.553522
Pt   14.456228   21.699627   26.072422
Pt   16.595539   18.540939   12.906424
Pt   14.581362   19.212328   17.392979
Pt   17.037308   18.412270   18.637740
Pt   15.138680   11.600060   21.488510
Pt   17.450429   18.248518   24.448610
Pt   19.294810   20.104239   28.572858
Pt   17.477213   15.815167   12.831298
Pt   17.906134   15.659488   18.503221
Pt   20.762281   22.039111   17.001049
Pt   19.628247   13.513871   22.733396
Pt   21.400956   15.382795   26.943855
Pt   18.322811   15.500915   24.305555
Pt   18.827167   17.803040   11.341470
Pt   23.185960   15.724522   12.404055
Pt   24.980839   13.523694   16.447438
Pt   18.119957   15.572594   21.402211
Pt   24.248772   15.377241   26.649560
Pt   25.517956   13.414239   25.062826
Pt   21.849491   13.694464   13.805417
Pt   24.678611   13.729285   13.724643
Pt   23.862187   15.447792   20.947234
Pt   23.287288   11.722653   15.133465
Pt   19.683254   17.495356   22.779720
Pt   27.788954   14.144704   23.578580
Pt   24.140930   18.416971   12.311803
Pt   24.378792   18.327190   15.137147
Pt   26.804834   19.018312   16.412166
Pt   25.948403   20.847084   23.863631
Pt   21.479304   19.353220   27.009467
Pt   23.726824   20.103978   25.454829
Pt   27.678904   24.246284   15.085862
Pt   27.481260   21.820085   13.680166
Pt   26.338147   16.128110   22.268566
Pt   28.043135   26.565571   19.469947
Pt   24.572933   18.244923   18.054798
Pt   25.287047   21.069187   15.156529
Pt   23.778436   27.456168   24.116905
Pt   23.213042   22.705343   18.259351
Pt   29.890356   22.483833   15.029125
Pt   23.813171   25.021837   25.541645
Pt   23.175384   25.208350   16.852665
Pt   20.991565   21.972579   19.895817
Pt   23.879535   22.530442   26.919805
Pt   21.201012   21.901156   22.774803
Pt   27.463395   18.812964   25.131602
Pt   20.920742   24.438421   18.513397
Pt   21.094482   29.341480   18.641303
Pt   21.294200   26.903430   22.923504
Pt   18.956646   25.194603   23.037306
Pt   22.780670   22.882267   12.528889
Pt   16.108513   26.127358   15.990126
Pt   23.433743   22.641236   21.195452
Pt   18.900176   27.742475   21.674708
Pt   19.167544   25.086510   25.908413
Pt   15.922744   23.701225   14.515572
Pt   18.666480   27.813738   18.754935
Pt   16.368073   23.573481   20.281308
Pt   16.753623   25.886219   24.692783
Pt   14.349127   26.671550   23.459830
Pt   13.604999   21.993636   14.755997
Pt   13.936121   24.343814   19.008111
Pt   11.540174   22.789622   16.428471
Pt   11.606907   22.723216   19.180585
Pt   12.853118   19.812684   24.723658
Pt   14.385963   19.294002   14.547426
Pt   11.010967   17.982500   17.707934
Pt   14.807003   19.183427   20.287096
Pt   17.256229   18.335548   21.542155
Pt   15.247836   19.000838   26.023107
Pt   13.038160   17.290015   16.012703
Pt   13.501238   17.145082   21.768239
Pt   15.454804   16.475063   17.217232
Pt   16.547711   13.614857   19.999977
Pt   17.677450   18.182598   27.275362
Pt   19.021782   17.698991   14.117247
Pt   19.215859   9.847072   16.849066
Pt   16.338844   13.721622   17.150052
Pt   26.613804   11.419708   20.703552
Pt   16.982895   13.541811   25.694506
Pt   23.421159   15.608604   15.194291
Pt   19.183403   13.628184   16.879929
Pt   19.251573   17.641860   17.002508
Pt   22.298763   13.560425   19.554693
Pt   22.783038   17.369598   25.454945
Pt   22.080234   13.584317   16.675223
Pt   17.676293   15.712059   15.608975
Pt   20.468776   11.708328   15.279082
Pt   20.983360   15.506836   21.183693
Pt   24.076386   15.405030   23.857926
Pt   18.946971   13.732915   14.030719
Pt   28.288775   16.996030   17.764389
Pt   22.559314   17.430204   22.557796
Pt   25.388452   13.441053   22.227496
Pt   26.514512   16.098386   25.138862
Pt   28.099034   17.082190   14.846761
Pt   25.037915   18.110357   23.880941
Pt   19.397384   13.614718   19.775100
Pt   27.254299   18.853643   22.293067
Pt   22.964930   17.340580   28.236263
Pt   26.583865   19.116789   13.571098
Pt   27.955487   21.667971   19.355405
Pt   30.440676   17.783788   16.217848
Pt   29.684792   19.547001   23.527268
Pt   31.725514   20.259414   21.852548
Pt   27.873030   24.154283   17.984818
Pt   23.543475   27.488324   21.248577
Pt   23.605472   25.077377   22.709633
Pt   30.395925   24.691097   22.068973
Pt   27.733333   21.751088   16.472113
Pt   25.837501   25.808219   21.052017
Pt   26.054702   25.758196   23.941316
Pt   28.170885   21.592420   22.234387
Pt   23.327258   27.581957   18.406414
Pt   25.635048   23.366184   19.569253
Pt   28.333184   24.013807   23.736128
Pt   25.894132   23.348336   22.500107
Pt   23.121725   27.674214   15.512549
Pt   27.777424   26.569575   16.647990
Pt   25.783857   28.272508   19.676276
Pt   23.756350   29.753851   22.603858
Pt   21.363523   29.261808   21.409952
Pt   21.040331   26.894093   20.029094
Pt   23.357991   25.083951   19.773586
Pt   20.890183   29.269078   15.885369
Pt   18.500441   25.335558   17.241167
Pt   16.500510   28.458561   20.402905
Pt   16.237201   28.426060   17.556044
Pt   18.328781   22.914762   15.728466
Pt   15.808063   21.271871   13.111907
Pt   16.566598   25.985757   21.812266
Pt   21.364002   24.325848   24.267234
Pt   13.799869   21.926943   17.564387
Pt   13.910435   26.824686   17.605265
Pt   16.584609   23.507700   23.206698
Pt   14.389209   24.203544   24.814061
Pt   11.629494   25.155275   17.837869
Pt   11.729606   25.073329   20.670766
Pt   15.016660   19.063673   23.179099
Pt   14.230372   21.779780   23.264637
Pt   13.736321   24.432597   16.135433
Pt   12.214977   20.031363   16.229632
Pt   11.822324   22.650140   22.040282
Pt   15.432191   11.659728   24.262077
Pt   14.955235   11.680277   18.670224
Pt   16.795222   18.466942   15.732706
Pt   13.689928   17.067104   24.674565
Pt   14.545535   14.327595   24.537256
Pt   13.891749   14.556066   15.881442
Pt   12.166632   22.573456   24.769813
Pt   12.525021   19.893661   21.911607
Pt   16.755117   13.572957   22.896770
Pt   12.684320   12.653083   17.465125
Pt   13.087194   12.531901   23.067851
Pt   12.818126   12.566842   20.259610
Pt   11.434201   17.841222   23.339666
Pt   14.797340   11.939008   15.901279
Pt   17.611471   11.767022   15.560286
Pt   18.069899   11.627227   21.287835
Pt   19.557330   9.668136   22.532711
Pt   20.705460   11.638668   18.222860
Pt   16.574873   9.761015   20.023735
Pt   16.113741   16.249395   25.919334
Pt   21.115965   11.473611   23.971319
Pt   19.344250   9.664728   19.695178
Pt   20.908809   11.563468   21.083307
Pt   20.767760   15.582958   18.271193
Pt   17.784638   11.590334   18.379014
Pt   25.883204   16.275181   16.445331
Pt   21.939602   9.825971   16.640103
Pt   26.755121   11.459334   23.477328
Pt   28.517093   16.890573   20.635791
Pt   26.968078   18.941736   19.365056
Pt   23.620151   11.511498   17.954667
Pt   25.166014   9.612462   22.165203
Pt   25.715663   20.903050   20.970977
Pt   25.653304   16.371391   13.583565
Pt   29.499807   15.163954   16.209341
Pt   30.852961   17.601033   21.876569
Pt   25.231331   18.064098   26.717708
Pt   29.027034   19.793134   14.862930
Pt   31.586560   20.310351   19.044317
Pt   29.431985   19.609683   20.630078
Pt   23.287937   20.221679   19.671898
Pt   31.303249   20.433831   16.247362
Pt   30.524565   22.247512   23.373551
Pt   23.534817   29.924185   19.869246
Pt   25.617164   25.887829   18.192670
Pt   29.969227   24.851328   16.466044
Pt   26.110253   23.272134   25.333881
Pt   23.259812   29.925051   17.077426
Pt   28.091414   24.073298   20.842655
Pt   20.862421   26.922340   17.161343
Pt   25.950091   28.136258   22.499601
Pt   18.466994   27.766622   15.944574
Pt   16.338493   26.061459   18.865482
Pt   16.668366   28.273521   23.248569
Pt   21.146830   24.406783   21.403024
Pt   14.176082   26.683107   20.529173
Pt   14.114378   29.052002   19.202421
Pt   12.074793   27.394823   22.092921
Pt   11.867669   27.465274   19.332332
Pt   12.055716   25.009936   23.484876
Pt   14.324203   28.980408   21.972719
Pt   15.735814   16.418553   20.145488
Pt   14.158901   24.267331   21.943212
Pt   13.286897   17.217164   18.913891
Pt   15.251065   16.539718   14.381863
Pt   18.269104   11.535453   24.199038
Pt   15.893929   16.323328   23.082645
Pt   11.802219   15.315129   17.575866
Pt   12.310252   19.966286   19.058570
Pt   11.146546   17.887245   20.528319
Pt   11.933176   15.212894   20.400153
Pt   12.225043   15.173706   23.217848
Pt   14.357927   14.412864   21.633601
Pt   16.134032   13.812407   14.343873
Pt   16.777434   9.762593   22.758972
Pt   23.958291   11.460624   23.777289
Pt   28.868582   12.279534   22.015269
Pt   22.393136   9.628011   22.316776
Pt   14.144483   14.483204   18.777520
Pt   29.881538   14.885953   21.879198
Pt   27.146667   14.438521   14.912872
Pt   22.481744   13.476773   22.521989
Pt   26.075327   16.170393   19.347036
Pt   22.191278   9.626669   19.479197
Pt   23.756069   11.565214   20.873273
Pt   25.192406   13.439996   19.281947
Pt   27.423534   14.249953   17.705962
Pt   23.655343   15.514502   18.056677
Pt   30.455283   22.361905   20.598466
Pt   30.730334   17.658310   19.040432
Pt   28.345437   21.518978   25.030109
Pt   24.794355   18.163334   20.975176
Pt   30.240232   22.447625   17.789717
Pt   28.760147   16.833927   23.531188
Pt   29.215043   19.701828   17.767894
Pt   25.511619   28.281239   16.861173
Pt   30.223740   24.840907   19.267465
