309
Generated with con2xyz
Pt   11.952389   18.657029   27.908000
Pt   10.423752   16.334269   23.048613
Pt   11.779880   16.678970   20.697325
Pt   12.508629   15.293447   24.483698
Pt   10.546267   21.355664   20.552454
Pt   11.846636   19.228352   19.441135
Pt   12.004710   21.785710   18.244733
Pt   10.424285   18.855572   21.822119
Pt   11.978819   21.132711   26.736591
Pt   12.614347   17.885201   23.192776
Pt   12.682546   20.447495   21.940926
Pt   11.128208   17.512972   25.488779
Pt   14.127418   17.719635   29.332852
Pt   13.291497   16.479245   26.945174
Pt   13.392282   19.086573   25.657984
Pt   16.386286   16.813666   30.630064
Pt   12.708054   23.064768   20.651557
Pt   11.256094   22.537735   22.914290
Pt   11.125116   20.057445   24.269462
Pt   14.397724   25.320600   25.570471
Pt   13.497392   24.214913   23.136714
Pt   13.368616   21.729143   24.454622
Pt   14.141341   20.305098   28.193836
Pt   14.213391   22.837460   26.895955
Pt   16.651779   26.905344   25.722517
Pt   13.319147   12.053627   20.922504
Pt   14.873655   10.012440   19.871774
Pt   13.271265   14.527002   19.631060
Pt   17.108601   8.998638   21.210290
Pt   13.332854   17.071148   18.357975
Pt   14.836370   14.938965   17.288304
Pt   14.895608   17.476756   16.028573
Pt   11.819308   14.182373   21.993493
Pt   14.057877   15.701718   22.117909
Pt   15.564679   13.564139   21.044703
Pt   15.606566   16.117553   19.744010
Pt   13.998634   13.146777   23.402560
Pt   14.780072   14.320089   25.879299
Pt   16.284378   12.188027   24.806206
Pt   16.338654   14.723010   23.551310
Pt   17.055504   13.377956   27.262411
Pt   13.583304   22.138029   16.009027
Pt   18.075295   15.743824   12.815928
Pt   18.188259   25.453621   16.188167
Pt   13.391458   19.630738   17.113265
Pt   14.184835   20.872473   19.568975
Pt   15.672134   18.676457   18.477550
Pt   15.787965   21.258760   17.252600
Pt   14.121717   18.270385   20.810450
Pt   14.964623   19.513018   23.339807
Pt   16.424771   17.322171   22.259030
Pt   16.487814   19.901157   20.980599
Pt   14.853008   16.872637   24.628076
Pt   15.628090   18.112332   27.110715
Pt   17.120528   15.916856   26.021922
Pt   17.216176   18.519034   24.753629
Pt   15.564425   15.525686   28.344870
Pt   17.932073   17.155310   28.468758
Pt   23.384595   21.523271   31.011096
Pt   17.876021   14.617739   29.687016
Pt   22.602254   17.769015   30.043472
Pt   19.748517   23.235879   15.128789
Pt   14.268546   23.452231   18.319620
Pt   15.029966   24.657263   20.801556
Pt   16.528068   22.507708   19.722456
Pt   16.598338   25.042184   18.469345
Pt   14.963599   22.107278   22.065334
Pt   15.757573   23.252517   24.554232
Pt   17.289166   21.097262   23.470588
Pt   17.307333   23.698878   22.186262
Pt   15.692502   20.715218   25.862503
Pt   16.468283   21.903740   28.323681
Pt   17.977521   19.743765   27.263249
Pt   18.037600   22.297760   26.002434
Pt   16.402293   19.348440   29.576119
Pt   18.677065   18.408664   30.845293
Pt   18.762377   20.930630   29.713020
Pt   17.371684   26.231783   20.925619
Pt   15.801673   25.827270   23.268970
Pt   18.994650   28.374798   25.818150
Pt   18.088959   24.850901   24.695095
Pt   18.155067   27.396259   23.398727
Pt   16.525847   24.437789   27.060721
Pt   18.812989   23.469434   28.459866
Pt   18.879592   26.004521   27.187640
Pt   21.253191   27.484664   27.211009
Pt   14.793043   12.404365   18.549628
Pt   18.717115   11.874940   17.632892
Pt   20.313968   12.243410   15.245229
Pt   16.409826   10.345507   17.553495
Pt   17.134164   11.469397   19.972435
Pt   20.933239   8.443355   20.274242
Pt   18.656147   9.327210   18.888752
Pt   15.519652   11.017458   22.333973
Pt   17.805432   10.046042   23.705740
Pt   20.131221   9.174584   25.016547
Pt   19.429469   10.500345   21.356126
Pt   20.892086   10.343192   27.440701
Pt   20.364137   14.786794   13.981010
Pt   18.018704   13.234228   13.975656
Pt   19.043386   22.076949   12.701518
Pt   16.373685   12.798905   16.219204
Pt   17.187738   16.528675   17.399253
Pt   18.756859   14.386317   16.315045
Pt   18.823452   16.949458   15.090593
Pt   17.132206   13.999683   18.664991
Pt   17.939880   15.172243   21.180507
Pt   19.500703   13.077460   20.114233
Pt   19.541813   15.579043   18.807501
Pt   17.864911   12.598549   22.486846
Pt   18.641807   13.763768   24.952296
Pt   20.198364   11.616025   23.840986
Pt   20.270309   14.199938   22.594833
Pt   18.575036   11.209197   26.154593
Pt   19.320650   12.402939   28.588681
Pt   21.641965   11.569668   29.792613
Pt   20.966169   12.793303   26.286563
Pt   21.733343   14.055173   28.685106
Pt   18.816234   19.494151   13.770872
Pt   19.849884   25.697340   14.010377
Pt   21.261860   21.080779   14.040441
Pt   16.521517   17.847241   13.813076
Pt   17.277003   19.093844   16.151859
Pt   18.077355   20.293004   18.662144
Pt   19.609005   18.127112   17.573541
Pt   19.621726   20.667386   16.305091
Pt   17.998839   17.723225   19.902504
Pt   18.793067   18.923856   22.385203
Pt   20.324313   16.754544   21.295124
Pt   20.394490   19.330970   20.040210
Pt   18.726771   16.345967   23.661618
Pt   19.518923   17.552119   26.123532
Pt   21.046283   15.387255   25.068067
Pt   21.103190   17.952120   23.770319
Pt   19.417209   14.982190   27.412649
Pt   20.199824   16.221403   29.944988
Pt   25.617396   13.494062   27.801623
Pt   21.833927   16.612111   27.568178
Pt   20.184833   13.636437   30.881655
Pt   26.478691   17.274925   28.943187
Pt   22.826780   21.454711   11.868529
Pt   17.302876   21.649426   14.852475
Pt   18.107170   22.882992   17.380446
Pt   20.545495   19.927076   11.701513
Pt   17.567429   24.175047   13.837422
Pt   18.887257   24.097829   19.838269
Pt   20.447377   21.899931   18.762703
Pt   20.519565   24.493151   17.535937
Pt   18.856013   21.508515   21.116879
Pt   19.627889   22.686033   23.605396
Pt   21.172221   20.530211   22.518488
Pt   21.226101   23.088061   21.230114
Pt   19.573068   20.125756   24.879023
Pt   20.333639   21.322499   27.393279
Pt   21.881404   19.148629   26.243951
Pt   21.951855   21.703539   25.013649
Pt   20.294754   18.741991   28.630090
Pt   23.465872   24.040413   29.850525
Pt   24.917785   19.397922   30.025941
Pt   22.470652   15.158641   31.059949
Pt   21.062420   19.957785   30.964146
Pt   20.590103   26.935173   16.367779
Pt   18.970491   26.644317   18.621594
Pt   19.734641   27.808073   21.076504
Pt   21.289558   25.671589   19.982850
Pt   20.552462   28.836425   23.545387
Pt   19.654688   25.261957   22.307236
Pt   20.473415   26.372949   24.801193
Pt   21.996378   24.207893   23.711117
Pt   24.376776   28.287153   22.617114
Pt   20.387483   23.856459   26.132134
Pt   21.170501   25.044202   28.575255
Pt   22.729161   22.892813   27.508974
Pt   24.355764   25.817931   23.859508
Pt   21.112845   22.509930   29.837241
Pt   22.104352   29.174545   21.240989
Pt   22.059702   26.783788   22.468440
Pt   22.829871   27.954846   24.937728
Pt   22.771100   25.406876   26.194642
Pt   23.500308   26.484455   28.547415
Pt   17.986776   10.793309   15.282408
Pt   20.232215   9.797552   16.610695
Pt   22.494946   8.909365   17.999155
Pt   21.011821   10.906761   19.021146
Pt   22.602435   11.277394   16.627185
Pt   19.380795   8.106338   22.576863
Pt   21.750818   9.474741   22.741282
Pt   23.329556   9.882726   20.419480
Pt   16.420626   15.324416   14.960741
Pt   22.708761   16.362063   14.102200
Pt   21.153040   15.957006   16.427165
Pt   22.667458   13.820077   15.353143
Pt   22.797200   18.895850   12.880319
Pt   21.101530   13.426328   17.689643
Pt   21.872258   14.605846   20.215735
Pt   23.388503   12.429874   19.124747
Pt   23.453590   14.987575   17.814494
Pt   21.834975   12.023969   21.515232
Pt   22.601667   13.189076   23.984143
Pt   24.115514   11.051603   22.892069
Pt   24.184793   13.585998   21.633179
Pt   22.515436   10.638064   25.192374
Pt   23.927894   13.091981   29.969795
Pt   24.888745   12.241330   25.350793
Pt   15.873209   23.787762   16.016228
Pt   21.338398   23.607404   12.880248
Pt   20.388337   17.361482   12.791785
Pt   25.100457   20.516263   13.126398
Pt   21.186565   18.514130   15.181141
Pt   21.977146   19.735074   17.677783
Pt   23.504789   17.548971   16.548429
Pt   23.583701   20.134359   15.336379
Pt   21.927548   17.161805   18.937071
Pt   22.705153   18.358921   21.429236
Pt   24.226221   16.191526   20.345879
Pt   24.283383   18.768712   19.068801
Pt   22.642012   15.778661   22.702934
Pt   23.405202   16.987969   25.171258
Pt   24.956826   14.778543   24.105531
Pt   25.007106   17.386728   22.839978
Pt   23.379111   14.406212   26.445109
Pt   29.486229   15.494306   25.576475
Pt   27.906617   15.143002   27.815280
Pt   31.010477   15.898035   23.264786
Pt   24.187637   15.642591   28.976383
Pt   15.006171   20.006063   14.891160
Pt   22.154412   24.880898   15.229020
Pt   23.666538   22.726980   14.137611
Pt   22.091346   22.330367   16.451918
Pt   22.857240   23.532104   18.886730
Pt   24.380852   21.372101   17.800756
Pt   24.447906   23.929269   16.581542
Pt   22.769340   20.937648   20.152842
Pt   23.554875   22.110143   22.639992
Pt   25.071959   19.962898   21.561930
Pt   25.158786   22.563657   20.272234
Pt   23.492747   19.557117   23.916824
Pt   24.296138   20.748426   26.425527
Pt   25.811072   18.604239   25.351821
Pt   25.882954   21.161100   24.084643
Pt   24.191787   18.176183   27.681435
Pt   25.052330   21.937452   28.875731
Pt   25.698904   16.025023   26.578350
Pt   26.570737   19.795646   27.810703
Pt   22.908771   26.077271   17.665362
Pt   21.352352   28.107114   18.798657
Pt   25.212997   25.108957   19.026386
Pt   23.631692   24.691052   21.343515
Pt   26.613100   27.275667   23.966914
Pt   25.924037   23.724012   22.787848
Pt   25.971289   26.277305   21.500924
Pt   24.358078   23.281275   25.162647
Pt   25.110833   24.473462   27.614625
Pt   26.643995   22.335247   26.548641
Pt   26.691763   24.879377   25.288169
Pt   22.653537   20.321203   28.726942
Pt   23.681661   27.239670   20.116842
Pt   28.168026   25.236816   22.918111
Pt   25.076715   26.935037   26.283108
Pt   24.834320   10.384487   18.093530
Pt   24.999395   15.396151   15.481366
Pt   24.944263   12.837472   16.755398
Pt   25.720890   14.005660   19.256076
Pt   27.154885   11.952226   18.225850
Pt   27.259188   14.415462   16.889223
Pt   25.671565   11.445654   20.542781
Pt   26.452304   12.626391   23.027381
Pt   27.987779   13.023328   20.681936
Pt   29.593267   18.610823   15.876446
Pt   25.078941   17.953821   14.238213
Pt   25.854609   19.179452   16.707803
Pt   27.331208   16.998609   15.616639
Pt   31.739684   17.657365   17.330107
Pt   25.786488   16.580106   17.946069
Pt   26.561499   17.799122   20.486247
Pt   28.029662   15.594829   19.396363
Pt   28.099777   18.223938   18.102855
Pt   26.522313   15.178050   21.772734
Pt   27.296741   16.411787   24.268240
Pt   30.288175   14.620676   20.847748
Pt   28.831758   16.817543   21.942561
Pt   28.775786   14.227526   23.184185
Pt   27.222150   13.829127   25.504721
Pt   32.433471   16.330622   20.938511
Pt   27.356960   19.563614   14.487339
Pt   25.941162   21.764100   15.480344
Pt   28.191750   20.812485   16.856274
Pt   26.655843   20.413136   19.192851
Pt   27.426339   21.589952   21.716136
Pt   28.898529   19.449189   20.649503
Pt   26.719220   22.970583   17.948685
Pt   27.379959   19.009993   23.016211
Pt   28.148381   20.205197   25.477999
Pt   28.094478   17.650972   26.724197
Pt   29.696696   20.626826   23.145988
Pt   23.299373   11.825017   27.618773
Pt   27.491099   24.151402   20.433017
Pt   29.664173   23.111308   21.849245
Pt   31.133113   20.975693   20.781523
Pt   28.210914   22.760423   24.211550
Pt   29.457267   13.536042   18.367381
Pt   29.637700   18.040883   24.410290
Pt   29.557485   16.023083   17.022316
Pt   30.275907   17.257541   19.579916
Pt   31.674542   15.174283   18.545672
Pt   31.157570   18.469271   22.092546
Pt   30.423396   19.872466   18.272991
Pt   28.975195   22.018806   19.360744
Pt   32.495188   18.814290   19.724328
