309
Generated with con2xyz
Pt   13.488939   17.637348   21.017699
Pt   15.449287   15.706614   21.352550
Pt   15.584532   17.583390   19.258203
Pt   14.977438   17.671354   23.312702
Pt   13.881778   21.515519   16.996998
Pt   15.784331   19.554505   17.215305
Pt   16.042828   21.567821   15.268899
Pt   13.624176   19.565506   18.988960
Pt   13.168498   21.593527   20.880640
Pt   15.232142   19.673610   21.230851
Pt   15.439320   21.647303   19.178806
Pt   13.040611   19.653172   22.913309
Pt   12.721901   21.688143   24.815651
Pt   14.585437   19.728802   25.243350
Pt   14.841832   21.734772   23.166110
Pt   14.286259   21.824666   27.099061
Pt   15.603297   23.650234   17.098482
Pt   13.446828   23.543209   18.874097
Pt   13.134691   25.564842   20.788653
Pt   15.052165   23.708154   21.114648
Pt   15.222013   25.706399   19.024671
Pt   12.862835   23.629475   22.797835
Pt   14.402980   23.826749   25.123913
Pt   14.615108   25.795424   23.077175
Pt   14.915554   27.679242   21.006969
Pt   17.505376   13.819483   21.701516
Pt   19.595808   12.033836   22.055884
Pt   19.715900   13.791638   19.960854
Pt   19.106919   13.880040   24.015418
Pt   17.848557   17.627957   17.550661
Pt   19.913317   15.733978   17.899975
Pt   20.114633   17.688165   15.860626
Pt   17.637606   15.674205   19.614024
Pt   17.248258   17.717993   21.576143
Pt   19.313831   15.821496   21.927389
Pt   19.523471   17.765417   19.828422
Pt   17.030439   15.760808   23.654672
Pt   16.638249   17.802513   25.607475
Pt   18.701524   15.906787   25.960272
Pt   18.906670   17.850707   23.910919
Pt   18.312853   17.944277   27.876906
Pt   18.291282   21.626085   13.671272
Pt   20.319578   19.679467   13.881836
Pt   24.870970   19.742030   10.905944
Pt   18.043982   19.608142   15.515994
Pt   17.670475   21.698383   17.430386
Pt   19.738111   19.734822   17.771946
Pt   19.960561   21.753981   15.760213
Pt   17.476305   19.678951   19.475009
Pt   17.144272   21.788637   21.470303
Pt   19.160516   19.845097   21.817237
Pt   19.374633   21.837814   19.738158
Pt   16.859494   19.765767   23.563752
Pt   16.458312   21.874122   25.484948
Pt   18.514660   19.910068   25.848411
Pt   18.765315   21.926939   23.776376
Pt   16.245556   19.877007   27.524371
Pt   15.953911   21.964913   29.359747
Pt   17.936202   20.011175   29.784478
Pt   18.133946   22.014746   27.757096
Pt   17.675337   22.104874   31.527232
Pt   20.159931   23.743720   13.759718
Pt   17.870253   23.707248   15.400122
Pt   17.487535   25.770754   17.320418
Pt   19.553300   23.852771   17.661444
Pt   19.756326   25.817036   15.635538
Pt   17.292049   23.804289   19.357845
Pt   16.886312   25.853402   21.341613
Pt   18.980065   23.920190   21.698723
Pt   19.162075   25.911122   19.596698
Pt   16.676377   23.894928   23.443523
Pt   16.276996   25.945553   25.370194
Pt   18.332501   24.029965   25.727774
Pt   18.545317   26.001049   23.673558
Pt   16.064640   23.959678   27.404905
Pt   17.754213   24.108257   29.664811
Pt   17.951569   26.085379   27.638971
Pt   19.377352   27.859156   17.556580
Pt   17.097629   27.811378   19.266543
Pt   16.795309   29.761321   21.243506
Pt   18.774607   27.944894   21.579353
Pt   19.001312   29.890381   19.500962
Pt   16.490391   27.898373   23.304076
Pt   18.163458   28.035077   25.607443
Pt   18.389997   29.976969   23.552172
Pt   18.715817   31.745418   21.491776
Pt   22.000002   13.837431   18.272831
Pt   24.090618   12.122685   18.730721
Pt   24.306806   13.958839   16.678338
Pt   21.840280   12.015280   20.386933
Pt   21.434253   13.982790   22.285809
Pt   23.509427   12.080887   22.642759
Pt   23.723908   14.035226   20.585615
Pt   21.251601   12.110496   24.314232
Pt   20.792946   14.022898   26.306108
Pt   22.912890   12.314482   26.561662
Pt   23.124018   14.124217   24.582184
Pt   22.527863   14.244849   28.512921
Pt   22.396486   17.718619   14.215931
Pt   24.513069   15.880645   14.673534
Pt   24.716070   17.796635   12.691748
Pt   22.210105   15.771275   16.232871
Pt   21.817607   17.829100   18.117015
Pt   23.940401   15.937958   18.493606
Pt   24.145021   17.895316   16.448391
Pt   21.604252   15.890648   20.174202
Pt   21.228044   17.943177   22.170019
Pt   23.338397   16.105571   22.524793
Pt   23.548869   18.004198   20.446515
Pt   20.987204   15.974367   24.269099
Pt   20.600668   17.993802   26.205242
Pt   22.730329   16.108751   26.559716
Pt   22.942857   18.087581   24.490648
Pt   20.411072   16.047871   28.238428
Pt   20.016444   18.098147   30.141423
Pt   22.141722   16.273391   30.421318
Pt   22.342299   18.146961   28.477848
Pt   21.766702   18.337700   32.231199
Pt   22.622342   19.675853   12.284428
Pt   22.191395   21.803623   14.000920
Pt   24.343775   19.889586   14.409867
Pt   24.529227   21.911937   12.411127
Pt   22.026958   19.804092   16.072936
Pt   21.656492   21.888976   18.054717
Pt   23.753879   19.958916   18.400415
Pt   23.930365   21.930421   16.371606
Pt   21.445643   19.901873   20.097686
Pt   21.058573   21.978269   22.055817
Pt   23.149688   20.047969   22.413807
Pt   23.362888   22.029214   20.346107
Pt   20.838067   19.989863   24.128493
Pt   20.443685   22.066650   26.052897
Pt   22.554545   20.129108   26.412560
Pt   22.757447   22.118489   24.364084
Pt   20.210530   20.047640   28.104006
Pt   19.874847   22.157096   29.984865
Pt   21.958690   20.240119   30.343164
Pt   22.173910   22.208792   28.279742
Pt   19.704843   20.215435   31.943129
Pt   21.568540   22.298156   32.257906
Pt   22.494163   23.872224   12.226201
Pt   22.036122   25.899553   13.987941
Pt   24.160174   23.918742   14.371848
Pt   24.359906   25.863451   12.508797
Pt   21.836180   23.891339   15.972747
Pt   21.457140   25.956975   17.892779
Pt   23.573451   24.012028   18.280689
Pt   23.785961   26.014718   16.238924
Pt   21.267773   23.965675   19.981698
Pt   20.870109   26.015052   21.936881
Pt   22.971167   24.099984   22.296882
Pt   23.189795   26.060852   20.216463
Pt   20.658331   24.055398   24.009068
Pt   20.238712   26.141408   25.967096
Pt   22.370836   24.201214   26.294635
Pt   22.582460   26.155368   24.255431
Pt   20.026739   24.174473   27.983610
Pt   19.655969   26.215581   29.903438
Pt   21.780533   24.268625   30.224823
Pt   21.981231   26.275160   28.240183
Pt   19.529186   24.187364   31.826371
Pt   21.413816   26.254111   31.999547
Pt   23.983757   27.916710   14.321299
Pt   21.677053   27.934584   15.894023
Pt   21.290933   29.954204   17.818603
Pt   23.405420   28.052122   18.163042
Pt   23.607966   29.936908   16.226489
Pt   21.066757   27.983516   19.832554
Pt   20.721354   29.985611   21.828756
Pt   22.805519   28.054656   22.181940
Pt   23.018543   30.041179   20.138784
Pt   20.449568   28.074508   23.918596
Pt   20.081273   30.116230   25.838197
Pt   22.193450   28.225381   26.205538
Pt   22.417742   30.122801   24.119590
Pt   19.873544   28.178735   27.883356
Pt   21.610081   28.234765   30.071125
Pt   21.822869   30.175443   28.046999
Pt   23.226558   31.863420   18.175925
Pt   20.962933   31.868768   19.824032
Pt   22.631523   32.076467   22.075679
Pt   20.371546   31.945649   23.743662
Pt   22.044920   32.017235   25.989339
Pt   26.049305   14.039935   18.874343
Pt   25.759247   12.200246   20.968515
Pt   25.411027   14.171404   22.880877
Pt   27.401410   12.398169   23.222345
Pt   27.729408   14.172677   21.154515
Pt   25.165626   12.292412   24.902053
Pt   24.842930   14.222047   26.911724
Pt   27.119872   14.261115   25.215414
Pt   26.466464   17.940195   14.818179
Pt   26.257390   15.978562   16.831864
Pt   25.886085   18.027599   18.731383
Pt   27.961942   16.133576   19.100615
Pt   28.171927   18.082630   17.067047
Pt   25.684634   16.094389   20.786402
Pt   25.271882   18.154742   22.771982
Pt   27.350134   16.214088   23.127819
Pt   27.589486   18.176117   21.033271
Pt   25.073273   16.180357   24.877722
Pt   24.678901   18.196622   26.812776
Pt   26.752109   16.307988   27.163457
Pt   26.981139   18.261343   25.114144
Pt   24.449607   16.247184   28.842916
Pt   24.069265   18.297574   30.749240
Pt   26.367021   18.342208   29.082159
Pt   26.658512   19.953953   12.852129
Pt   26.252184   22.000716   14.704885
Pt   28.381818   20.059637   15.053290
Pt   28.464258   22.079303   13.184937
Pt   26.085639   19.993366   16.700730
Pt   25.671940   22.083910   18.640657
Pt   27.784849   20.135810   18.976685
Pt   27.992867   22.144448   16.947725
Pt   25.467484   20.101993   20.698241
Pt   25.054563   22.164055   22.653027
Pt   27.177453   20.258830   23.012648
Pt   27.355547   22.221702   20.949500
Pt   24.866826   20.187801   24.725012
Pt   24.485356   22.263805   26.652462
Pt   26.582086   20.308661   27.047279
Pt   26.761793   22.311435   24.947784
Pt   24.297609   20.250050   28.714647
Pt   23.863762   22.351753   30.584273
Pt   25.966156   20.404755   30.990229
Pt   26.189771   22.408312   28.962036
Pt   23.631378   20.406243   32.535852
Pt   25.494580   22.484269   32.714752
Pt   26.426472   23.978469   12.782973
Pt   26.110415   26.076945   14.591987
Pt   28.187346   24.157732   14.929492
Pt   25.912802   24.099024   16.604985
Pt   25.526171   26.150987   18.511330
Pt   27.611455   24.234300   18.874862
Pt   27.809121   26.211434   16.851242
Pt   25.280542   24.151317   20.576836
Pt   24.905794   26.201430   22.538835
Pt   26.958378   24.277946   22.889988
Pt   27.226338   26.278800   20.805616
Pt   24.678560   24.245593   24.610421
Pt   24.315955   26.333619   26.574505
Pt   26.406322   24.417618   26.923526
Pt   26.615362   26.370951   24.878712
Pt   24.116877   24.370123   28.592307
Pt   23.706917   26.410584   30.512254
Pt   25.776300   24.498040   30.877517
Pt   26.001757   26.474206   28.841592
Pt   23.450445   24.377734   32.422747
Pt   25.720665   28.120370   16.495311
Pt   25.345370   30.142408   18.425959
Pt   27.429091   28.239917   18.765931
Pt   25.152911   28.173728   20.450005
Pt   24.716673   30.173228   22.428320
Pt   26.833635   28.317686   22.786063
Pt   27.035077   30.272178   20.707129
Pt   24.539238   28.262979   24.527120
Pt   24.134403   30.307407   26.443897
Pt   26.216802   28.415071   26.810264
Pt   26.423939   30.357197   24.753430
Pt   23.911072   28.372178   28.488599
Pt   24.895941   32.056665   20.413169
Pt   26.551051   32.125037   22.666589
Pt   24.302316   32.134544   24.333200
Pt   29.314839   14.377702   23.464712
Pt   29.850127   18.236685   19.335932
Pt   29.618592   16.246565   21.394570
Pt   29.232486   18.296654   23.365239
Pt   31.178989   16.443119   23.700320
Pt   31.485905   18.333090   21.610256
Pt   29.010061   16.332272   25.451577
Pt   28.639915   18.409811   27.402919
Pt   30.868493   18.421586   25.706328
Pt   30.177521   22.199977   15.340549
Pt   30.070125   20.202224   17.314538
Pt   29.656259   22.283084   19.252625
Pt   31.695716   20.379129   19.616372
Pt   31.763838   22.345964   17.596271
Pt   29.472787   20.302611   21.269870
Pt   29.094019   22.409374   23.253810
Pt   31.041259   20.439651   23.590341
Pt   31.419460   22.473428   21.505162
Pt   28.863283   20.391042   25.351418
Pt   28.454521   22.459116   27.249106
Pt   30.491651   20.555203   27.587717
Pt   30.799955   22.566182   25.609721
Pt   28.256578   20.462449   29.316896
Pt   27.779471   22.540341   31.151851
Pt   29.963806   22.603731   29.458823
Pt   29.875991   24.293557   17.183622
Pt   29.502571   26.337276   19.129139
Pt   31.451698   24.406630   19.462859
Pt   29.298564   24.340659   21.193818
Pt   28.880478   26.370703   23.136512
Pt   31.013793   24.483830   23.499598
Pt   31.068012   26.421018   21.439273
Pt   28.696385   24.430647   25.200945
Pt   28.292838   26.516372   27.154113
Pt   30.234470   24.582480   27.493424
Pt   30.468521   26.509358   25.402662
Pt   28.057873   24.557823   29.213312
Pt   29.109469   28.374100   21.059152
Pt   28.633740   30.331178   23.016409
Pt   30.607510   28.411690   23.354461
Pt   28.499517   28.463436   25.106094
Pt   32.954845   18.535636   23.923470
Pt   33.209649   20.436242   21.948267
Pt   32.883146   22.422894   23.827347
Pt   32.623413   20.522232   25.802644
