309
Generated with con2xyz
Pt   16.533837   16.031519   17.862369
Pt   18.747030   14.652718   18.824500
Pt   19.076807   16.714906   16.939094
Pt   17.155134   16.251256   20.538651
Pt   15.627964   22.088037   15.938627
Pt   19.423659   18.948214   15.081741
Pt   16.916785   18.115145   15.916119
Pt   14.500315   17.511145   16.900037
Pt   17.468989   18.445860   18.669238
Pt   17.807932   20.628419   16.853949
Pt   17.214686   20.416575   14.215632
Pt   14.948262   17.710074   19.578517
Pt   13.570533   19.458010   21.335715
Pt   15.641790   17.938351   22.291588
Pt   16.007642   20.157831   20.473636
Pt   14.239454   19.686251   24.004398
Pt   18.181837   22.860806   15.041430
Pt   15.155930   19.949838   17.794513
Pt   14.825457   19.607122   15.157793
Pt   16.349456   22.356635   18.645297
Pt   16.668993   24.552576   16.790459
Pt   13.817705   21.641178   19.580492
Pt   14.458348   21.880332   22.252329
Pt   14.799597   24.075738   20.426292
Pt   14.236561   23.748676   17.767048
Pt   20.984658   13.286472   19.793491
Pt   23.237442   12.024004   20.784356
Pt   23.559844   13.980643   18.893295
Pt   21.676255   13.483990   22.503411
Pt   21.639831   17.517860   16.078033
Pt   23.891752   16.136884   17.063758
Pt   24.227472   18.295454   15.266703
Pt   21.298758   15.337943   17.912559
Pt   19.744928   17.028053   19.664897
Pt   22.017626   15.639391   20.651027
Pt   22.365819   17.795943   18.791975
Pt   19.410052   14.852402   21.513023
Pt   17.894752   16.523524   23.259184
Pt   20.156192   15.140499   24.241627
Pt   20.487335   17.291397   22.422747
Pt   18.665514   16.805507   25.965797
Pt   19.759748   21.176543   13.397354
Pt   22.327433   21.937074   12.594801
Pt   31.384969   22.622446   17.317787
Pt   21.979083   19.718123   14.267738
Pt   20.426546   21.416841   16.013638
Pt   22.703877   19.970668   16.982691
Pt   23.035261   22.192063   15.197978
Pt   20.094295   19.194575   17.807398
Pt   18.616328   20.915928   19.604122
Pt   20.865132   19.501868   20.584592
Pt   21.205786   21.694143   18.760733
Pt   18.228606   18.690149   21.437474
Pt   16.718007   20.419930   23.195622
Pt   18.982077   18.970787   24.163965
Pt   19.343727   21.197084   22.340945
Pt   16.394215   18.218903   24.999469
Pt   15.008339   19.964880   26.691582
Pt   17.185449   18.500230   27.698145
Pt   17.490451   20.701997   25.901209
Pt   18.042071   25.104572   31.105699
Pt   23.372785   24.405665   13.413494
Pt   20.773459   23.628747   14.211374
Pt   19.261769   25.316410   15.944968
Pt   21.516393   23.910035   16.916153
Pt   21.857694   26.088602   15.130863
Pt   18.918909   23.132213   17.743083
Pt   17.402365   24.822401   19.533983
Pt   19.684329   23.389263   20.517394
Pt   20.011686   25.590430   18.657276
Pt   17.039947   22.644590   21.388689
Pt   15.545904   24.335074   23.141354
Pt   17.794467   22.915649   24.101841
Pt   18.132843   25.094700   22.289934
Pt   15.215320   22.136604   24.943026
Pt   16.001160   22.426899   27.632745
Pt   16.314057   24.607707   25.837240
Pt   20.366014   27.752840   16.856784
Pt   17.757545   26.992924   17.699252
Pt   15.247867   26.176948   18.605597
Pt   18.508408   27.259895   20.445501
Pt   18.878842   29.420954   18.610594
Pt   15.894547   26.505820   21.309245
Pt   16.648616   26.767389   24.041376
Pt   17.007835   28.926327   22.227553
Pt   16.347366   28.597195   19.510284
Pt   26.163835   14.772752   18.068676
Pt   28.365072   13.566092   19.153009
Pt   28.742137   15.627965   17.338351
Pt   25.819758   12.735739   19.962135
Pt   24.317816   14.323149   21.660620
Pt   26.591733   12.943386   22.652692
Pt   26.938303   15.107002   20.839632
Pt   23.993507   12.250244   23.466432
Pt   22.441256   13.776866   25.226107
Pt   23.262939   14.160129   27.891892
Pt   25.091914   14.611507   24.392294
Pt   21.784908   15.815376   29.607122
Pt   26.833915   19.085652   14.476303
Pt   29.075410   17.773441   15.551152
Pt   27.941506   21.574980   15.450736
Pt   26.512409   16.921349   16.265940
Pt   24.995677   18.576820   17.976023
Pt   27.310499   17.220858   18.999621
Pt   27.644687   19.375126   17.204176
Pt   24.646865   16.435287   19.781590
Pt   23.136114   18.114004   21.572844
Pt   25.428440   16.796418   22.578775
Pt   25.792461   18.904392   20.748177
Pt   22.759733   15.928466   23.418335
Pt   21.269187   17.575545   25.158043
Pt   23.589996   16.219308   26.163316
Pt   23.928686   18.404292   24.337735
Pt   20.954032   15.431571   26.964856
Pt   19.463148   17.107342   28.676150
Pt   20.335738   17.518537   31.238972
Pt   22.101379   17.883402   27.888271
Pt   21.403052   19.919963   32.203880
Pt   24.569310   20.484747   13.478941
Pt   25.993158   25.124240   12.747994
Pt   24.893143   22.699230   11.896736
Pt   30.479199   22.362030   14.685991
Pt   25.316107   20.743466   16.195019
Pt   23.813429   22.471560   17.946491
Pt   26.127785   21.063188   18.951896
Pt   26.429090   23.252343   17.202433
Pt   23.489367   20.281571   19.749083
Pt   21.976118   21.979064   21.510732
Pt   24.272176   20.570472   22.504500
Pt   24.612565   22.759793   20.683131
Pt   21.628539   19.784271   23.332076
Pt   20.121969   21.482420   25.061628
Pt   22.437192   20.072015   26.064789
Pt   22.760019   22.263541   24.258127
Pt   19.782303   19.256337   26.867335
Pt   15.855508   20.269507   29.310732
Pt   20.619539   19.607040   29.570620
Pt   20.960262   21.783224   27.747612
Pt   18.062810   18.877800   30.329278
Pt   19.123241   21.291620   31.300554
Pt   27.150976   21.319154   12.813509
Pt   24.473829   26.856750   14.338209
Pt   25.660417   22.973231   14.457929
Pt   26.771308   25.433012   15.382505
Pt   24.120848   24.690849   16.124695
Pt   22.635165   26.372009   17.838373
Pt   24.944543   24.958301   18.880916
Pt   25.284850   27.153208   17.062821
Pt   22.310265   24.170260   19.682523
Pt   20.797361   25.839700   21.436330
Pt   23.098210   24.452322   22.436301
Pt   23.450108   26.627129   20.609706
Pt   20.452302   23.673332   23.262502
Pt   18.912730   25.378896   25.022247
Pt   21.254194   23.970012   25.995314
Pt   21.587896   26.131260   24.197575
Pt   18.587901   23.208136   26.800432
Pt   17.114948   24.884150   28.541657
Pt   19.450501   23.467544   29.502547
Pt   19.745053   25.670273   27.750923
Pt   16.912919   22.683074   30.262446
Pt   18.319612   27.275495   29.403805
Pt   27.053660   27.526217   13.715485
Pt   22.987978   28.533957   16.057618
Pt   21.491015   30.187865   17.789704
Pt   23.793685   28.819097   18.788230
Pt   25.601739   29.227223   15.348977
Pt   21.140004   28.021343   19.574571
Pt   17.507699   30.935160   20.436211
Pt   21.958383   28.245514   22.370793
Pt   22.295812   30.434063   20.561648
Pt   19.255809   27.521621   23.212875
Pt   17.783786   29.201808   24.951365
Pt   20.078652   27.828563   25.955906
Pt   20.455481   29.943801   24.115212
Pt   17.445627   27.055031   26.759747
Pt   18.654980   29.424520   27.617566
Pt   19.034649   31.482816   25.800639
Pt   24.118829   30.883625   17.065190
Pt   19.676241   29.662960   21.384482
Pt   20.057031   31.751699   19.614676
Pt   18.244120   31.269269   23.120758
Pt   21.586841   32.307378   24.995211
Pt   29.604632   15.851226   20.005729
Pt   29.140965   13.766500   21.829841
Pt   27.713747   15.388263   23.571652
Pt   27.322950   13.288091   25.340987
Pt   29.863672   14.079655   24.513117
Pt   24.733358   12.598046   26.142653
Pt   25.892273   14.859565   27.163687
Pt   28.501010   15.620691   26.340092
Pt   29.355328   19.941294   13.845697
Pt   29.944060   17.997936   18.197241
Pt   28.475908   19.670195   19.940493
Pt   30.735577   18.287409   20.915932
Pt   31.070992   20.445133   19.116141
Pt   28.136677   17.536028   21.749703
Pt   26.590737   19.201154   23.513557
Pt   28.888077   17.801963   24.516671
Pt   29.270471   19.973736   22.685883
Pt   26.249233   17.027433   25.375690
Pt   24.753508   18.665693   27.108797
Pt   27.024113   17.299061   28.091879
Pt   27.389268   19.462388   26.288972
Pt   24.400119   16.509811   28.894698
Pt   22.917761   18.186131   30.612508
Pt   25.536559   18.953782   29.814930
Pt   28.270883   23.751623   13.653332
Pt   29.054636   24.035899   16.369831
Pt   30.275765   20.165876   16.412411
Pt   29.324987   26.167336   14.621533
Pt   28.800136   21.837265   18.160956
Pt   27.260682   23.548437   19.891916
Pt   29.589824   22.129248   20.876020
Pt   29.897572   24.338798   19.064741
Pt   26.925938   21.353895   21.685471
Pt   25.389802   23.035890   23.423666
Pt   27.713884   21.651621   24.428759
Pt   28.029155   23.815503   22.620727
Pt   25.072200   20.855467   25.259371
Pt   23.572991   22.559160   26.996027
Pt   25.873671   21.122376   28.022435
Pt   26.175760   23.327160   26.153090
Pt   23.269093   20.346228   28.821487
Pt   22.509361   22.346445   33.047748
Pt   24.022263   20.636820   31.532274
Pt   24.349722   22.846248   29.746944
Pt   18.337140   21.006223   28.586439
Pt   21.731386   22.066537   30.490553
Pt   31.529481   24.777584   15.628393
Pt   27.920139   27.933180   16.280733
Pt   30.193513   26.539674   17.253336
Pt   27.603098   25.776628   18.089366
Pt   26.108380   27.453911   19.792881
Pt   28.393611   26.054912   20.797831
Pt   28.708417   28.227810   18.994646
Pt   25.743622   25.238610   21.609962
Pt   24.243471   26.915317   23.370402
Pt   26.505741   25.500805   24.343698
Pt   26.894382   27.729041   22.522283
Pt   23.883006   24.744509   25.189184
Pt   22.384528   26.460941   26.967195
Pt   24.670417   25.065708   27.950141
Pt   25.007854   27.229015   26.147261
Pt   22.071003   24.294258   28.750105
Pt   20.564068   25.959171   30.473641
Pt   22.830247   24.560398   31.461864
Pt   23.169534   26.745799   29.671836
Pt   20.249303   23.725557   32.136016
Pt   26.426716   29.607297   17.992921
Pt   24.942585   31.262413   19.729873
Pt   27.226405   29.887887   20.714990
Pt   24.624497   29.105780   21.532991
Pt   24.170134   33.007934   24.175235
Pt   25.370532   29.391799   24.297854
Pt   23.075363   30.717757   23.291727
Pt   22.739564   28.603405   25.164662
Pt   21.236790   30.272411   26.885197
Pt   23.507859   28.894784   27.882685
Pt   23.846101   31.047128   26.061208
Pt   20.883368   28.125157   28.686410
Pt   22.648830   32.446973   18.815520
Pt   23.400425   32.791564   21.492229
Pt   20.800320   32.102971   22.304156
Pt   31.023298   16.404618   25.437839
Pt   31.838251   20.735795   21.802379
Pt   30.370755   16.102691   22.724457
Pt   30.024395   20.265942   25.437953
Pt   32.120375   18.794231   26.335858
Pt   31.481991   18.507684   23.630675
Pt   29.625221   18.055730   27.256516
Pt   28.144296   19.751407   29.002340
Pt   30.693900   20.512155   28.130525
Pt   32.373814   25.083169   18.245164
Pt   32.171148   22.911986   20.016436
Pt   30.645569   24.604811   21.799859
Pt   32.887789   23.218769   22.716799
Pt   33.066901   25.355025   20.903932
Pt   30.389968   22.449998   23.646075
Pt   28.841830   24.142076   25.371933
Pt   32.600523   20.911654   24.458597
Pt   28.608541   30.311496   26.106665
Pt   28.484437   21.943172   27.180505
Pt   26.936218   23.621099   28.890261
Pt   29.134983   22.230907   29.827981
Pt   33.468839   23.280937   25.357101
Pt   26.625450   21.412500   30.732164
Pt   25.072425   23.113944   32.345027
Pt   27.592390   23.869198   31.481837
Pt   30.975329   26.830512   19.958698
Pt   31.661089   27.034134   22.655439
Pt   30.154714   28.693754   24.425596
Pt   29.163940   26.292696   23.548073
Pt   27.622596   27.959902   25.267965
Pt   29.888749   26.583927   26.268447
Pt   29.495925   28.496447   21.720517
Pt   27.301446   25.805157   27.096338
Pt   25.786818   27.508307   28.856195
Pt   27.967396   26.051156   29.765039
Pt   26.421400   31.732801   25.166791
Pt   25.426074   25.339205   30.661709
Pt   27.989239   30.169348   23.440024
Pt   25.717536   31.547219   22.451831
Pt   28.328204   28.210096   27.935709
Pt   26.114854   29.669268   27.048556
Pt   31.059785   22.789411   26.423721
Pt   31.463787   24.934545   24.523924
Pt   33.109262   21.187692   27.076711
Pt   29.520165   24.439253   28.120272
