309
Generated with con2xyz
Pt   8.552142   19.996926   22.462208
Pt   16.127268   16.033275   18.291447
Pt   12.154036   16.026768   18.344374
Pt   10.319374   16.046763   20.406360
Pt   12.184271   20.085116   14.374626
Pt   12.124813   18.041220   16.315649
Pt   12.174422   20.092395   18.354360
Pt   8.533536   18.058506   20.522738
Pt   12.133853   18.064921   20.401057
Pt   10.323738   20.105026   16.414938
Pt   14.121286   18.035622   18.320245
Pt   10.356951   20.098878   24.459366
Pt   12.250678   18.046817   24.502922
Pt   14.157679   18.045175   22.426411
Pt   12.149164   20.089153   22.421730
Pt   12.334537   20.110234   26.410912
Pt   12.130926   22.154575   16.287171
Pt   10.218252   18.070741   18.381716
Pt   10.354573   24.081050   20.388894
Pt   12.191129   22.130111   20.390808
Pt   10.290416   22.151965   18.342748
Pt   10.156889   20.178548   20.324726
Pt   14.191312   24.172348   24.438993
Pt   12.176242   24.170741   22.439189
Pt   12.230447   26.104536   20.388887
Pt   14.267651   12.182506   20.361934
Pt   18.215357   14.020777   22.372776
Pt   14.153851   14.018432   18.318613
Pt   16.224951   12.062930   22.390492
Pt   12.232125   15.985123   22.444435
Pt   14.113767   16.026110   16.298685
Pt   16.089461   16.025265   14.280282
Pt   14.207956   14.008370   22.420729
Pt   10.289765   17.961446   22.542993
Pt   16.188127   12.066085   18.318090
Pt   16.120202   14.027091   16.284860
Pt   12.274823   14.074328   20.383289
Pt   16.240839   16.038622   26.403089
Pt   16.231305   14.025446   24.410446
Pt   14.223620   16.027072   24.443799
Pt   16.220731   20.120068   26.404687
Pt   14.147831   20.086054   12.368083
Pt   16.074708   18.043925   12.277841
Pt   16.150928   20.090978   10.456796
Pt   14.087413   18.046341   14.285165
Pt   14.101429   20.093981   16.289200
Pt   16.092362   18.042198   16.273098
Pt   16.078536   20.097211   14.268423
Pt   14.150825   16.035399   20.370596
Pt   14.184096   20.089490   20.383923
Pt   14.117852   22.164034   18.300065
Pt   16.133561   20.104341   18.313239
Pt   18.223873   16.041967   24.383827
Pt   14.185115   20.110019   24.427964
Pt   16.190761   18.059601   24.412270
Pt   12.203197   22.149308   24.457212
Pt   14.241453   18.063836   26.454352
Pt   14.336221   20.115613   28.353540
Pt   16.268364   18.060634   28.393655
Pt   16.192689   22.169043   24.423561
Pt   16.378846   20.105796   30.208393
Pt   16.061668   22.145503   12.265521
Pt   14.081752   22.137244   14.268645
Pt   14.098648   24.180112   16.277491
Pt   16.080182   22.163738   16.261964
Pt   16.062960   24.176521   14.258007
Pt   12.145759   24.190442   18.321817
Pt   14.133864   24.176620   20.366850
Pt   16.154556   22.141292   20.341756
Pt   16.096531   24.185142   18.280363
Pt   14.159385   22.154615   22.432985
Pt   10.250836   22.123794   22.430245
Pt   16.196395   20.111718   22.383771
Pt   16.146881   24.179928   22.398564
Pt   14.217401   22.158046   26.437488
Pt   16.251090   22.177913   28.396528
Pt   16.232716   24.179220   26.420112
Pt   16.076005   26.179898   16.259408
Pt   14.110818   26.191388   18.317530
Pt   14.207903   28.093833   20.365542
Pt   16.124766   26.180537   20.340541
Pt   16.105478   28.177504   18.286725
Pt   14.154016   26.181341   22.411597
Pt   16.177787   26.172600   24.412749
Pt   16.155150   28.172582   22.390143
Pt   16.225941   29.987981   20.337637
Pt   18.141886   12.057048   16.254839
Pt   20.225245   10.256910   16.326267
Pt   20.179399   12.145494   14.305178
Pt   18.298300   10.204769   18.269284
Pt   18.151639   14.040130   18.281441
Pt   20.241731   10.130875   20.324977
Pt   20.222130   12.111516   18.295992
Pt   18.268259   10.262092   22.349593
Pt   18.265685   12.080369   24.379621
Pt   22.340149   12.101385   24.311172
Pt   18.166106   12.012359   20.324640
Pt   20.336734   12.230309   26.287805
Pt   18.087997   16.041397   12.259921
Pt   20.145815   14.124744   12.317278
Pt   20.116530   16.145331   10.423599
Pt   18.123693   14.038276   14.247571
Pt   16.172393   18.072775   20.352884
Pt   20.189952   14.047979   16.231944
Pt   20.159194   16.042739   14.230724
Pt   18.122102   16.026154   16.254288
Pt   16.178329   16.035121   22.406130
Pt   20.211581   14.086062   20.336067
Pt   20.204652   16.063529   18.274463
Pt   16.186661   14.051072   20.350996
Pt   18.197802   16.080422   20.330488
Pt   20.295940   14.071197   24.342744
Pt   20.282122   18.107765   24.349593
Pt   18.272881   14.044469   26.384998
Pt   18.283541   16.054893   28.362196
Pt   20.329853   18.116938   28.286933
Pt   22.377606   14.061869   26.329801
Pt   20.347784   16.158269   30.154298
Pt   18.125979   18.111808   10.375506
Pt   18.109637   20.102313   12.297295
Pt   20.129758   18.092337   12.278876
Pt   20.102030   20.107874   10.276036
Pt   18.087210   18.038577   14.266372
Pt   18.122695   20.109953   16.281982
Pt   20.174599   18.071746   16.262471
Pt   20.144530   20.112824   14.307974
Pt   18.160821   18.078025   18.288523
Pt   18.182363   20.116204   20.312606
Pt   22.238143   18.089022   18.237365
Pt   20.225771   18.098141   20.288014
Pt   18.215810   18.092830   22.359534
Pt   18.245778   20.126015   24.373727
Pt   20.258930   16.096873   22.332255
Pt   20.239719   20.123366   22.307832
Pt   18.239732   18.059450   26.362176
Pt   18.309325   20.124841   28.313308
Pt   20.315441   16.055043   26.354242
Pt   20.340072   20.174323   26.346059
Pt   18.352323   18.117877   30.244407
Pt   20.295152   20.078237   30.259430
Pt   18.114041   22.088075   10.369996
Pt   18.060581   24.167102   12.246174
Pt   20.116783   22.130085   12.274555
Pt   20.089472   24.070556   10.411700
Pt   18.071880   22.172868   14.255319
Pt   18.090528   24.191943   16.235108
Pt   20.158341   22.161005   16.249700
Pt   20.129704   24.189152   14.218293
Pt   18.143686   22.150158   18.282199
Pt   18.166796   24.163264   20.311699
Pt   20.206853   22.151641   20.283342
Pt   20.176744   24.170757   18.248106
Pt   18.198305   22.150769   22.342664
Pt   18.197898   24.188721   24.387493
Pt   20.263197   22.158626   24.314243
Pt   20.251351   26.193680   24.358043
Pt   18.260960   22.180632   26.400091
Pt   18.320060   24.140446   28.359668
Pt   20.372315   22.198928   28.427696
Pt   20.288506   24.164325   26.347092
Pt   18.308780   22.055788   30.211799
Pt   20.100298   26.100157   12.298128
Pt   18.079113   26.181453   14.231374
Pt   18.083444   28.167639   16.244926
Pt   20.145505   26.193431   16.214223
Pt   20.110705   28.088143   14.280219
Pt   18.104822   26.174827   18.249544
Pt   18.170523   28.134294   20.311183
Pt   20.224276   26.139199   20.282409
Pt   20.166919   28.137547   18.275188
Pt   18.158882   26.172503   22.374810
Pt   18.187477   28.165906   24.372666
Pt   20.260380   28.109056   26.275954
Pt   20.219447   28.136935   22.290868
Pt   18.233652   26.174657   26.393569
Pt   20.116088   29.983666   16.296566
Pt   18.177194   30.052293   18.323089
Pt   20.198191   30.130238   20.282344
Pt   18.224926   30.052466   22.295953
Pt   20.215567   29.995252   24.257037
Pt   22.256153   12.075048   16.217352
Pt   22.215646   10.203510   18.304092
Pt   22.263854   12.123881   20.282297
Pt   24.246831   10.282854   20.240157
Pt   24.292812   12.087757   18.197240
Pt   20.284311   12.023983   22.384126
Pt   22.350245   10.229285   22.213275
Pt   22.320208   14.066708   22.338115
Pt   22.186908   16.056452   12.212389
Pt   22.212417   14.051955   14.201482
Pt   22.243480   16.046222   16.198095
Pt   24.269248   14.067861   16.176864
Pt   24.234536   16.057077   14.176910
Pt   22.278488   14.072623   18.216762
Pt   22.265108   16.079193   20.273278
Pt   24.318714   14.070146   20.250637
Pt   24.289936   16.058988   18.189937
Pt   24.361824   14.079761   24.320854
Pt   22.348492   16.076163   24.350430
Pt   24.358114   12.094274   22.310846
Pt   24.335142   16.063537   22.301806
Pt   22.398488   16.073424   28.317442
Pt   20.348904   14.138136   28.272027
Pt   24.380946   16.101753   26.323980
Pt   22.092879   18.127633   10.333081
Pt   22.137746   20.119900   12.253116
Pt   24.188960   18.077137   12.183642
Pt   24.055101   20.123775   10.368721
Pt   22.217564   18.056259   14.213382
Pt   22.211266   20.123185   16.228030
Pt   24.258674   18.072398   16.167467
Pt   24.216833   20.131293   14.173121
Pt   20.190805   20.121584   18.260891
Pt   22.248219   20.131135   20.259274
Pt   24.277208   18.106476   20.241159
Pt   24.245016   20.137881   18.201591
Pt   22.288953   18.101789   22.294007
Pt   22.301480   20.138453   24.290204
Pt   24.352175   18.091881   24.315692
Pt   22.271770   22.169061   22.289079
Pt   22.363720   18.113040   26.351532
Pt   22.390547   20.196126   28.404520
Pt   24.345635   18.161240   28.288421
Pt   24.369283   22.198835   28.193970
Pt   22.283074   18.104788   30.161757
Pt   22.078022   22.103906   10.325988
Pt   22.157438   24.182100   12.201484
Pt   24.171961   22.178888   12.177651
Pt   22.204041   22.190621   14.211040
Pt   22.213865   24.214337   16.186636
Pt   24.247638   22.196422   16.163499
Pt   24.203134   24.207368   14.170814
Pt   22.219243   22.163106   18.221942
Pt   22.239415   24.168759   20.253994
Pt   24.249901   22.176696   20.230925
Pt   24.255602   24.215314   18.166934
Pt   20.231905   24.173940   22.318821
Pt   22.319813   24.216156   24.329590
Pt   24.331593   20.155456   26.299258
Pt   24.327054   26.226285   24.283781
Pt   20.316837   26.116350   28.183728
Pt   22.353127   24.197244   28.217898
Pt   26.367863   22.216747   26.277550
Pt   22.333671   22.183516   26.336179
Pt   22.164984   26.195584   14.178630
Pt   22.196342   28.183737   16.177060
Pt   24.219869   26.215993   16.162680
Pt   22.237242   26.211603   18.206875
Pt   24.205170   28.178378   18.194203
Pt   22.289219   26.212887   22.302813
Pt   24.251700   26.202669   20.227724
Pt   24.258111   28.184048   22.254716
Pt   22.300710   28.194733   24.323400
Pt   24.359879   24.226148   26.296342
Pt   24.305971   24.218710   22.291142
Pt   22.334057   26.217281   26.325008
Pt   22.094703   30.039706   18.187925
Pt   22.286849   28.253781   20.252666
Pt   22.147577   30.045845   22.316217
Pt   26.258964   12.181833   20.224220
Pt   26.258352   16.067252   16.147876
Pt   26.300318   14.075794   18.179717
Pt   26.309949   16.076295   20.221249
Pt   28.235553   14.172570   20.200204
Pt   28.278547   16.092438   18.145487
Pt   26.352520   14.086053   22.268616
Pt   26.349604   16.084761   24.292959
Pt   28.326942   16.101111   22.247030
Pt   26.104405   20.135281   12.229927
Pt   26.223161   18.094014   14.141239
Pt   26.244166   20.144284   16.143078
Pt   28.232476   18.094642   16.127365
Pt   28.113582   20.143794   14.185212
Pt   26.266081   18.080905   18.155230
Pt   26.237775   20.178832   20.212014
Pt   28.247996   18.139459   20.192344
Pt   28.211978   20.158997   18.180286
Pt   26.311680   18.089376   22.279008
Pt   24.296614   20.147951   22.271628
Pt   28.326458   18.109278   24.254982
Pt   28.259292   20.165491   22.196790
Pt   26.359804   18.116802   26.299886
Pt   26.303899   20.178638   28.114577
Pt   28.277004   20.160336   26.182593
Pt   26.204995   22.185305   14.130802
Pt   26.233161   24.218970   16.138476
Pt   28.217290   22.211567   16.104066
Pt   26.269745   22.214122   18.159203
Pt   26.268165   24.203897   20.204189
Pt   28.337629   22.257031   20.180927
Pt   28.219996   24.196955   18.145376
Pt   26.340023   20.159157   24.286903
Pt   24.343932   22.210150   24.305851
Pt   26.338991   24.232802   24.260729
Pt   28.325290   22.223744   24.252733
Pt   26.319879   22.219600   22.256337
Pt   26.245321   26.220117   18.147071
Pt   26.179379   28.061976   20.197298
Pt   26.300229   26.227344   22.250377
Pt   28.112098   26.144937   20.174130
Pt   30.114184   16.207556   20.173838
Pt   30.031985   20.142649   16.177908
Pt   30.139316   18.180787   18.181447
Pt   30.228367   20.182228   20.161992
Pt   30.188214   18.186428   22.155173
Pt   30.140092   20.152402   24.142559
Pt   30.098745   22.101038   18.090895
Pt   28.274740   24.202266   22.207913
Pt   30.153859   22.105713   22.222817
