309
Generated with con2xyz
Pt   19.479321   22.464946   10.779919
Pt   20.485951   21.607697   13.132737
Pt   21.560609   20.696025   15.638413
Pt   22.637928   19.777160   18.154095
Pt   23.716090   18.855103   20.680126
Pt   24.782944   17.931998   23.185465
Pt   25.863393   17.023765   25.693957
Pt   27.356694   14.671818   25.778829
Pt   22.197484   22.673752   11.205542
Pt   23.272273   21.803723   13.620735
Pt   24.340183   20.882034   16.153617
Pt   25.427670   19.952290   18.686979
Pt   26.505254   19.018333   21.217740
Pt   27.601540   18.097541   23.732275
Pt   28.532619   19.974371   25.645234
Pt   20.367824   24.344324   12.598199
Pt   21.414768   23.498836   15.033648
Pt   22.496335   22.563486   17.555705
Pt   23.579705   21.640660   20.091940
Pt   24.660199   20.713439   22.621265
Pt   25.744866   19.804308   25.146299
Pt   26.776607   18.883426   27.562535
Pt   17.986332   22.846150   13.067638
Pt   18.992996   21.972143   15.511165
Pt   20.090534   21.047559   18.027299
Pt   21.173942   20.122221   20.567950
Pt   22.247420   19.193559   23.094333
Pt   23.326842   18.285343   25.631554
Pt   26.872589   16.168400   28.047283
Pt   18.352038   20.242712   11.970892
Pt   19.363355   19.324504   14.399969
Pt   20.455458   18.416606   16.919289
Pt   21.539739   17.489960   19.455703
Pt   22.608616   16.558841   21.966523
Pt   23.689293   15.639077   24.507287
Pt   25.213131   13.256541   24.620916
Pt   20.950928   20.131281   10.814585
Pt   21.999691   19.212575   13.227299
Pt   23.073025   18.304595   15.760920
Pt   24.165194   17.373446   18.297846
Pt   25.230678   16.443465   20.809904
Pt   26.329265   15.520270   23.331929
Pt   22.211717   16.014956   26.908741
Pt   24.980159   22.833541   11.724385
Pt   26.052821   21.966628   14.147011
Pt   27.124563   21.049225   16.690740
Pt   28.208689   20.112365   19.229546
Pt   29.307207   19.182232   21.745423
Pt   30.312386   18.275835   24.178782
Pt   23.143073   24.580905   13.064271
Pt   24.219053   23.702239   15.539201
Pt   25.288752   22.751744   18.085359
Pt   26.377455   21.815637   20.640270
Pt   27.489160   20.898036   23.173501
Pt   28.387770   22.750246   25.079431
Pt   21.301268   26.201297   14.530590
Pt   22.353599   25.351036   16.966170
Pt   23.439532   24.411676   19.496100
Pt   24.527963   23.498287   22.026813
Pt   25.606209   22.579833   24.560466
Pt   26.630740   21.653767   26.981193
Pt   18.867713   24.753422   14.948850
Pt   19.920721   23.861614   17.425078
Pt   21.026323   22.909535   19.956073
Pt   22.119476   21.971907   22.521986
Pt   23.197001   21.072606   25.077626
Pt   24.260947   20.165256   27.543270
Pt   16.526804   23.189312   15.472537
Pt   17.530201   22.312169   17.916409
Pt   18.637907   21.385224   20.440666
Pt   19.695945   20.455095   22.974919
Pt   20.790008   19.550147   25.520793
Pt   24.398981   17.393375   28.041017
Pt   16.823169   20.597233   14.317974
Pt   17.861819   19.688687   16.798117
Pt   18.985219   18.774802   19.325000
Pt   20.058815   17.837563   21.875014
Pt   21.140388   16.905299   24.434484
Pt   24.754153   14.791338   26.940202
Pt   17.251576   17.980399   13.265055
Pt   18.264875   17.055218   15.695382
Pt   19.363395   16.151390   18.228205
Pt   20.433171   15.206938   20.734594
Pt   21.512352   14.292825   23.300471
Pt   22.572229   13.443844   25.740394
Pt   19.833164   17.840795   12.030920
Pt   20.883421   16.903109   14.501303
Pt   21.982493   16.009919   17.055669
Pt   23.056660   15.056194   19.563244
Pt   24.152727   14.129436   22.127388
Pt   25.675068   11.774659   22.241772
Pt   22.474974   17.747047   10.951536
Pt   23.516732   16.821507   13.370280
Pt   24.591870   15.910449   15.921415
Pt   25.686083   14.948088   18.420907
Pt   27.806727   13.200333   23.392769
Pt   28.607127   17.200932   26.167696
Pt   23.726712   20.306680   11.251826
Pt   24.790923   19.402670   13.719092
Pt   25.851318   18.490057   16.279616
Pt   26.950892   17.536698   18.842563
Pt   28.069144   16.594508   21.361130
Pt   29.119407   15.698493   23.832291
Pt   27.768597   22.978700   12.252676
Pt   28.849039   22.107202   14.693106
Pt   31.422354   18.781382   17.334128
Pt   33.666786   20.415707   20.141873
Pt   32.016273   19.340814   22.178868
Pt   25.926559   24.733832   13.562520
Pt   26.996736   23.860760   16.066532
Pt   28.061203   22.894034   18.651354
Pt   29.197568   21.993992   21.186777
Pt   30.250824   21.045469   23.662125
Pt   24.069091   26.453302   14.998816
Pt   25.169612   25.566774   17.489832
Pt   26.228059   24.610903   20.026670
Pt   27.358517   23.679407   22.580888
Pt   28.218276   25.510326   24.529972
Pt   22.244872   28.055883   16.474130
Pt   23.300447   27.184640   18.933739
Pt   24.396370   26.309583   21.427793
Pt   27.169220   26.436431   21.951455
Pt   26.460969   24.426144   26.406953
Pt   19.805451   26.612791   16.876392
Pt   20.854012   25.709475   19.362566
Pt   21.982293   24.730104   21.898203
Pt   23.050176   23.842882   24.488018
Pt   24.116941   22.937770   26.964301
Pt   17.403097   25.100420   17.349277
Pt   18.466221   24.204465   19.832356
Pt   19.583415   23.217263   22.371651
Pt   20.658281   22.336960   24.960862
Pt   21.717528   21.429943   27.442568
Pt   15.071374   23.548122   17.881172
Pt   16.096361   22.634503   20.362887
Pt   17.115482   21.720444   22.855347
Pt   18.242911   20.827139   25.388099
Pt   21.863316   18.661728   27.933865
Pt   15.342546   20.941703   16.729077
Pt   16.390148   20.024648   19.230073
Pt   17.486091   19.123780   21.717974
Pt   18.604956   18.164453   24.320170
Pt   19.679439   17.281332   26.810478
Pt   15.718595   18.327467   15.608390
Pt   16.759967   17.426858   18.110512
Pt   17.895840   16.517035   20.628780
Pt   18.964560   15.555695   23.209929
Pt   20.029205   14.654030   25.699201
Pt   15.141961   13.500475   15.906783
Pt   17.208537   14.767333   17.019892
Pt   18.257892   13.827654   19.490196
Pt   16.110519   12.445790   18.307636
Pt   18.211793   10.797941   23.250272
Pt   18.717133   15.568411   13.311051
Pt   19.797077   14.615990   15.813998
Pt   20.860267   13.725388   18.291205
Pt   21.981286   12.799049   20.935152
Pt   23.028621   11.907754   23.443725
Pt   21.365864   15.438722   12.149320
Pt   22.416537   14.482936   14.673100
Pt   23.498001   13.550007   17.138555
Pt   24.614717   12.657159   19.703664
Pt   26.029878   10.357118   19.877804
Pt   24.000424   15.353123   11.095469
Pt   23.935788   12.056984   14.793537
Pt   26.090609   13.448077   16.047002
Pt   26.767439   14.048469   20.932662
Pt   28.210704   11.767812   21.015407
Pt   25.243295   17.917100   11.382578
Pt   26.309580   17.018461   13.862224
Pt   27.350329   16.102417   16.445476
Pt   28.496836   15.122793   18.973073
Pt   29.564692   14.206627   21.441841
Pt   26.512633   20.472739   11.770716
Pt   27.573867   19.560878   14.248198
Pt   28.617408   18.645060   16.841169
Pt   29.767486   17.678664   19.370050
Pt   30.828717   16.777214   21.848556
Pt   31.956107   20.718364   12.945496
Pt   31.706512   22.253938   15.218624
Pt   33.494510   23.121562   19.634793
Pt   28.844914   27.591185   19.956699
Pt   28.709105   24.883091   14.082206
Pt   29.930265   21.195519   17.216986
Pt   31.965114   22.094464   21.673774
Pt   32.759548   21.349058   17.675958
Pt   26.847615   26.601272   15.481011
Pt   29.574483   26.652595   16.049980
Pt   29.084658   24.817715   20.565824
Pt   30.108911   23.825699   23.094276
Pt   24.992992   28.272441   16.947182
Pt   26.090104   27.492695   19.431032
Pt   27.952358   25.687350   18.063178
Pt   27.977191   28.158124   23.868395
Pt   23.110764   29.799101   18.455997
Pt   24.230745   29.089183   20.902999
Pt   23.746649   28.353274   25.681884
Pt   26.264943   27.176872   25.783876
Pt   20.716283   28.462117   18.816822
Pt   22.881718   26.606371   23.834978
Pt   22.686995   29.305699   23.245813
Pt   23.950037   25.711058   26.382339
Pt   18.332636   26.967084   19.303419
Pt   19.420048   26.029903   21.819177
Pt   20.488732   25.119491   24.318815
Pt   21.561590   24.216294   26.852155
Pt   15.952932   25.457486   19.761323
Pt   17.043877   24.502046   22.279225
Pt   18.111424   23.595225   24.775233
Pt   19.182016   22.701356   27.328511
Pt   13.737420   23.881045   20.298323
Pt   14.592914   22.981407   22.793339
Pt   15.638918   22.131759   25.283790
Pt   19.328172   19.933373   27.818318
Pt   13.987303   21.340473   19.112526
Pt   13.950119   18.089020   23.024041
Pt   14.743824   19.790591   26.463260
Pt   17.158648   18.542309   26.706294
Pt   14.281227   18.659466   18.026207
Pt   15.229274   17.787570   20.555906
Pt   16.412289   16.834645   23.035664
Pt   17.486294   15.915492   25.582029
Pt   16.157400   15.702966   14.549461
Pt   15.746749   15.142683   19.428684
Pt   19.322705   12.950294   22.062888
Pt   20.384307   12.099470   24.521883
Pt   17.644171   13.386208   14.646113
Pt   13.733269   13.812485   18.217901
Pt   17.085735   11.556191   20.812091
Pt   17.841956   13.306154   24.479496
Pt   20.856543   10.560107   22.232811
Pt   17.755487   10.170852   18.519223
Pt   19.798863   11.505033   19.675722
Pt   30.363118   11.534525   16.611493
Pt   20.266286   13.272268   13.467049
Pt   21.287119   12.164743   15.885956
Pt   20.283439   10.015253   17.378468
Pt   23.483343   10.428388   21.073494
Pt   25.043716   14.419496   13.568113
Pt   25.093245   11.125426   17.288244
Pt   27.252890   12.479697   18.535347
Pt   21.312309   9.190745   19.832516
Pt   28.223316   13.228654   11.792867
Pt   18.678142   12.292604   17.057556
Pt   25.542793   13.063453   11.317286
Pt   23.865888   9.113134   18.701253
Pt   26.774624   15.542648   11.521502
Pt   27.827060   14.623707   14.060939
Pt   28.885607   13.733220   16.551231
Pt   29.998726   12.794197   19.034063
Pt   28.048125   18.072727   11.906692
Pt   29.111514   17.152861   14.435675
Pt   30.182452   16.243380   16.935413
Pt   31.273665   15.300165   19.447665
Pt   29.299458   20.619758   12.294085
Pt   33.065933   19.784660   15.350620
Pt   32.486987   24.092755   17.177146
Pt   32.532128   17.849498   19.849469
Pt   31.004467   20.267779   19.727124
Pt   30.537476   23.103941   12.842717
Pt   31.802616   24.822313   21.091270
Pt   31.368254   24.946554   14.735150
Pt   31.424501   27.391227   20.567396
Pt   30.857411   23.059501   19.150337
Pt   27.755721   28.286144   17.400893
Pt   29.770602   23.959214   16.643158
Pt   29.886288   26.568106   22.555279
Pt   30.753906   25.848630   18.512716
Pt   27.005125   29.090487   21.469061
Pt   25.261242   28.210057   23.389371
Pt   21.818821   27.516567   21.335786
Pt   21.692955   30.136657   20.764813
Pt   25.444461   25.366079   23.957609
Pt   19.325899   28.706090   21.237993
Pt   20.339585   27.874397   23.739264
Pt   21.423425   26.914629   26.168277
Pt   16.944269   27.201695   21.710689
Pt   17.963154   26.372177   24.209397
Pt   19.052300   25.413743   26.636404
Pt   14.629325   25.662745   22.161856
Pt   15.649279   24.849294   24.630440
Pt   16.743577   23.920829   27.060714
Pt   16.091116   19.453246   24.145600
Pt   13.659556   20.636285   24.080741
Pt   16.808623   21.207218   27.640033
Pt   14.856545   20.384979   21.642221
Pt   15.051026   17.216809   25.412295
Pt   15.381562   14.622173   24.270635
Pt   13.321617   16.324818   19.266262
Pt   14.261270   15.496565   21.815071
Pt   15.761228   12.096007   23.166693
Pt   14.632041   16.057413   16.878998
Pt   14.672928   12.953002   20.704015
Pt   16.799593   14.232405   21.924620
Pt   18.760810   9.360410   20.953399
Pt   22.843322   9.948208   16.264539
Pt   22.411715   11.378806   18.515722
Pt   26.600278   12.062133   13.669685
Pt   27.716954   11.212740   16.075091
Pt   22.922584   13.134216   12.355056
Pt   29.348970   12.315939   14.178656
Pt   30.626603   14.781710   14.560063
Pt   31.623466   13.910080   17.059887
Pt   29.500001   15.703787   12.142005
Pt   31.881191   17.297690   14.949226
Pt   32.871489   16.433463   17.457892
Pt   30.352945   19.694472   14.837566
Pt   30.757714   18.233648   12.527096
Pt   34.055244   18.922633   17.836755
