309
Generated with con2xyz
Pt   25.751906   21.318242   12.993873
Pt   23.416038   20.735099   11.488597
Pt   20.854203   20.174117   18.556882
Pt   20.918683   22.623888   22.900072
Pt   24.508294   13.977006   25.812488
Pt   20.326442   16.232722   27.210025
Pt   22.935249   20.770447   28.642450
Pt   20.543162   20.200231   29.892707
Pt   24.041932   30.353380   17.257639
Pt   23.611273   23.197248   12.853529
Pt   24.457758   18.663562   21.567166
Pt   23.769954   25.643208   14.286654
Pt   23.118660   20.753977   22.966599
Pt   23.198831   23.228456   27.279864
Pt   20.697299   20.182142   24.320301
Pt   21.094511   20.161059   10.107034
Pt   21.172946   22.624836   14.203873
Pt   20.931453   20.169604   15.680708
Pt   20.774860   20.179810   21.442977
Pt   21.159238   25.053330   21.458095
Pt   20.845067   22.647395   25.794122
Pt   20.768710   22.615771   28.574994
Pt   21.256149   22.580241   11.421765
Pt   16.409820   22.071358   15.538306
Pt   18.620708   21.105069   17.046795
Pt   18.541387   21.107766   19.929239
Pt   18.600571   23.601191   24.304559
Pt   18.380889   21.134087   25.721270
Pt   18.346333   21.132872   28.507865
Pt   19.485140   18.320265   11.391995
Pt   23.580876   16.037227   12.934848
Pt   19.294760   18.310044   17.076888
Pt   17.552400   12.620587   15.656632
Pt   19.213156   18.305430   19.962315
Pt   16.769204   19.269851   27.109306
Pt   19.015187   18.350165   28.529809
Pt   22.332098   18.105376   11.461916
Pt   20.720484   16.211556   12.787728
Pt   24.643959   18.654129   15.725217
Pt   15.443600   17.354058   16.954232
Pt   19.058216   18.312914   25.741470
Pt   22.022449   18.092752   22.933199
Pt   20.616908   20.193015   27.194398
Pt   24.706820   18.658153   12.891671
Pt   30.597379   17.766948   17.428045
Pt   30.623159   17.804508   20.282667
Pt   23.201423   20.750699   20.066589
Pt   28.053983   17.196087   24.564503
Pt   25.349830   21.349266   27.271831
Pt   23.428012   23.188006   18.596680
Pt   25.742815   23.753755   20.133199
Pt   23.535747   23.211853   15.685435
Pt   28.173372   24.365801   18.768458
Pt   23.430651   25.668845   25.847031
Pt   23.051345   20.771748   25.863845
Pt   21.016811   20.167170   12.805099
Pt   25.857959   26.252444   24.464970
Pt   16.860643   29.320258   22.692144
Pt   20.997170   22.622120   19.999003
Pt   23.524117   25.661358   23.005180
Pt   21.005586   25.050018   27.139224
Pt   18.956962   23.565016   12.722460
Pt   18.850067   23.583501   15.561463
Pt   18.684411   23.564416   21.393203
Pt   18.757547   23.554299   18.476517
Pt   16.320740   24.556929   25.622964
Pt   18.542997   23.599177   27.138349
Pt   16.652697   24.520820   14.094523
Pt   17.870825   16.455106   12.805140
Pt   13.028017   18.330978   21.245884
Pt   16.265579   22.052518   21.313690
Pt   18.471384   21.113011   22.830166
Pt   16.146122   22.092767   27.005243
Pt   19.378094   18.294346   14.177168
Pt   13.277156   18.338082   15.407390
Pt   15.265416   17.367122   22.747561
Pt   16.300753   22.056932   18.415136
Pt   13.755248   15.590508   24.114086
Pt   16.806239   19.248778   24.264673
Pt   17.050889   19.236191   15.520224
Pt   13.966408   15.593552   15.543353
Pt   16.094750   14.510578   17.032198
Pt   19.146593   18.310940   22.845193
Pt   20.210042   12.207718   18.498041
Pt   17.487733   16.476570   27.045088
Pt   15.934802   14.530421   22.739106
Pt   18.823538   21.095721   11.363803
Pt   22.102507   18.091774   20.041611
Pt   25.799537   16.591964   20.144308
Pt   20.462094   16.217838   21.449367
Pt   23.190475   16.062852   27.221729
Pt   25.956365   16.579668   14.360236
Pt   17.759915   16.430153   15.607722
Pt   21.784531   14.183517   20.007512
Pt   27.101772   14.491426   18.705831
Pt   21.952207   18.095375   25.833716
Pt   21.857455   18.137454   28.616256
Pt   28.086832   21.899762   14.516215
Pt   18.658678   10.585184   22.803029
Pt   20.201527   12.322207   21.419355
Pt   23.521339   16.006521   15.720434
Pt   23.285207   16.025174   24.436942
Pt   24.304667   18.686183   27.319873
Pt   28.229017   17.192217   18.728385
Pt   25.534663   21.330901   21.587149
Pt   26.018526   26.230100   18.701455
Pt   28.145196   17.197318   21.696534
Pt   29.206412   19.842380   21.683140
Pt   27.189261   14.499870   15.829611
Pt   23.374640   20.748239   14.269700
Pt   17.030039   29.302655   17.032232
Pt   23.568622   25.604184   20.065762
Pt   25.620131   23.803478   25.914256
Pt   21.423167   25.018600   12.855297
Pt   25.699224   23.809016   23.071034
Pt   28.047374   21.918501   17.315745
Pt   21.654106   30.005338   18.589287
Pt   26.026148   28.595987   22.966700
Pt   16.370247   24.552942   22.769599
Pt   21.078018   22.612606   17.099639
Pt   23.278954   20.744471   17.165051
Pt   23.747830   28.066966   21.500209
Pt   21.082675   25.077795   24.358835
Pt   10.462979   21.956971   16.950759
Pt   21.241897   25.045177   18.539910
Pt   19.189503   28.415933   18.495619
Pt   21.241481   27.483336   25.685373
Pt   18.786425   26.037840   25.715705
Pt   16.538670   22.053642   12.734803
Pt   17.161657   19.240844   12.684155
Pt   16.652550   26.945040   21.295810
Pt   14.023526   23.053735   19.796287
Pt   11.733753   23.908915   21.164215
Pt   16.527047   24.525010   16.971572
Pt   11.803540   23.907872   23.939595
Pt   10.240834   22.100373   22.596531
Pt   15.549667   17.362589   14.072610
Pt   8.913606   20.201852   21.218001
Pt   14.039558   23.081249   16.879175
Pt   12.614363   21.148777   15.438262
Pt   14.569797   20.236799   25.635990
Pt   16.913335   19.232733   21.357338
Pt   12.382518   21.206622   24.157976
Pt   17.415047   12.474417   18.486544
Pt   13.806216   15.501911   18.374069
Pt   21.440659   10.318881   22.856970
Pt   16.271436   14.632523   14.265197
Pt   17.573044   16.412125   21.354974
Pt   14.872261   20.223425   14.034322
Pt   17.517297   16.447501   24.232118
Pt   18.774182   14.362337   25.729599
Pt   21.668381   14.159298   25.827886
Pt   18.878071   14.329380   19.941581
Pt   24.829874   13.968534   14.411325
Pt   20.544720   16.234990   18.545179
Pt   19.097282   14.339791   14.189513
Pt   18.831402   14.343925   22.854441
Pt   20.392659   16.205313   24.372300
Pt   20.361668   12.299844   15.672609
Pt   22.980637   12.071915   24.415548
Pt   26.053427   11.931779   15.954334
Pt   21.727392   14.149117   22.975632
Pt   25.635148   16.597560   25.928106
Pt   24.539593   18.661056   18.645226
Pt   21.973849   14.136867   14.251949
Pt   24.703960   13.934152   20.113335
Pt   23.225773   12.071365   15.711213
Pt   24.601566   13.941311   23.008343
Pt   19.008228   14.347074   17.076902
Pt   22.274317   18.076947   14.245411
Pt   25.898796   16.582391   17.206189
Pt   25.463553   21.350921   24.492016
Pt   24.399847   18.670782   24.488014
Pt   31.584487   15.678961   21.707497
Pt   23.441007   16.022745   18.625702
Pt   30.376219   22.484081   16.076014
Pt   27.017089   14.492641   21.655756
Pt   29.388799   19.829646   15.908957
Pt   30.136768   22.503431   24.455609
Pt   31.386559   20.430151   23.118326
Pt   25.615729   21.325398   18.679524
Pt   28.089854   24.372361   21.633808
Pt   30.284813   24.916551   23.080499
Pt   27.973200   21.919197   20.201430
Pt   29.288618   19.836597   18.798736
Pt   23.669291   28.100705   24.403432
Pt   21.337570   25.058811   15.638922
Pt   25.868392   23.796266   17.197924
Pt   24.016626   30.415615   20.068585
Pt   23.871823   30.365938   22.876591
Pt   19.436803   30.709041   17.119306
Pt   25.708433   21.332232   15.775702
Pt   27.764890   21.925077   25.884306
Pt   26.196682   28.583746   17.303670
Pt   21.323348   27.513612   22.885383
Pt   18.845901   26.026661   22.874217
Pt   26.171770   28.654593   20.136651
Pt   21.568935   30.012754   21.405113
Pt   26.113242   26.233664   15.806798
Pt   19.268770   30.726060   22.736514
Pt   16.830818   26.964929   15.515641
Pt   19.019998   28.467767   24.267379
Pt   21.495316   27.499448   17.111179
Pt   18.956338   25.956601   19.931765
Pt   19.104359   28.425524   21.362247
Pt   16.559321   26.986903   24.203817
Pt   19.131279   26.007942   14.142786
Pt   14.777048   20.201597   16.890226
Pt   11.801434   23.855173   18.369299
Pt   14.122686   25.485038   24.054788
Pt   14.300833   23.004821   14.131459
Pt   14.530623   27.882406   19.790669
Pt   13.195550   18.329016   18.348435
Pt   13.060382   18.328771   24.202222
Pt   14.092137   25.527115   21.224068
Pt   10.884551   19.305995   22.796051
Pt   14.590995   20.189258   22.767563
Pt   15.244301   17.374125   25.651159
Pt   11.582241   16.500831   19.741443
Pt   14.724559   20.186725   19.869499
Pt   13.724188   15.511283   21.256206
Pt   12.372299   21.123182   21.223879
Pt   16.009067   14.516295   19.875564
Pt   14.454662   25.482428   15.514628
Pt   16.978347   19.235729   18.449019
Pt   17.313897   12.555438   24.190297
Pt   9.572742   17.560592   21.230750
Pt   28.391342   12.519220   17.381574
Pt   18.696874   10.529371   20.052129
Pt   11.593362   16.520701   22.662980
Pt   20.637272   16.197659   15.626382
Pt   24.405883   10.144833   17.283617
Pt   23.048944   12.101868   21.504000
Pt   20.126225   12.295457   24.347929
Pt   22.183363   18.090474   17.142065
Pt   17.646737   16.418629   18.488412
Pt   30.529140   13.148908   21.679533
Pt   24.760501   13.933084   17.219499
Pt   21.873601   14.123200   17.105667
Pt   31.548441   20.418139   17.490601
Pt   21.686661   10.330787   17.171742
Pt   25.944793   11.793165   21.577197
Pt   23.117630   12.098724   18.640293
Pt   29.512269   15.111575   17.314618
Pt   28.222788   12.522827   23.058023
Pt   25.802960   11.928037   24.341285
Pt   26.976813   19.243527   17.231983
Pt   30.439013   22.541403   18.855220
Pt   26.939967   14.506735   24.533817
Pt   29.340682   15.119223   23.187058
Pt   27.883729   21.930939   23.086233
Pt   27.051028   19.250397   14.387580
Pt   31.548028   20.439658   20.306838
Pt   25.734649   16.590989   23.082114
Pt   30.358003   22.548226   21.684863
Pt   25.933563   26.236631   21.569385
Pt   28.301007   17.181656   15.860846
Pt   29.141960   19.847158   24.574642
Pt   23.696418   25.648488   17.130100
Pt   28.193903   26.751902   23.034607
Pt   23.345288   23.194314   21.535638
Pt   26.725711   19.273357   25.959840
Pt   21.727984   29.854380   15.813425
Pt   23.286001   23.230523   24.448712
Pt   25.952498   23.778153   14.355077
Pt   19.282864   28.443902   15.590277
Pt   21.407866   27.506623   19.997789
Pt   28.280992   24.367294   15.865436
Pt   23.928981   28.081412   15.731595
Pt   23.833917   28.060621   18.634445
Pt   21.581472   27.456650   14.309657
Pt   16.736597   26.932439   18.428061
Pt   21.475329   29.874667   24.181579
Pt   19.019171   26.007397   16.989937
Pt   14.666136   27.820526   16.971425
Pt   16.425753   24.509297   19.868333
Pt   28.330729   26.818193   20.203133
Pt   19.298365   30.778494   19.925471
Pt   16.890762   29.376705   19.858419
Pt   14.170884   25.507275   18.349838
Pt   11.781273   16.580431   16.892313
Pt   14.497832   27.845111   22.615945
Pt   10.844964   19.268309   19.598046
Pt   10.220439   22.053746   19.712850
Pt   13.948682   23.075183   25.491020
Pt   18.701303   21.113952   14.148979
Pt   13.973944   23.026543   22.650928
Pt   16.171242   22.079086   24.213497
Pt   12.551357   21.137739   18.343009
Pt   17.286555   12.470878   21.352551
Pt   15.981082   14.639681   25.508378
Pt   11.093222   19.299247   16.793208
Pt   15.349243   17.324665   19.869978
Pt   24.281895   10.068388   20.102534
Pt   24.218509   10.141022   22.920898
Pt   21.495905   10.236641   20.018188
Pt   23.356537   16.020802   21.520271
Pt   30.610957   13.144687   18.895480
Pt   29.357862   15.139799   20.248580
Pt   28.339265   12.408647   20.222015
Pt   26.029251   11.799781   18.729855
Pt   26.855796   19.249454   20.172560
Pt   26.811038   19.254213   23.115919
Pt   30.413069   24.981010   20.265650
Pt   30.449146   24.902923   17.448498
Pt   30.433427   17.777156   23.131720
Pt   28.029775   24.386484   24.538354
Pt   31.666082   15.674130   18.922331
Pt   28.362044   26.739719   17.368979
