309
Generated with con2xyz
Pt   10.195175   20.836470   22.184763
Pt   23.456941   12.481032   15.885070
Pt   14.965144   15.595235   15.809305
Pt   13.968704   20.924643   26.355380
Pt   12.523285   19.292245   18.002496
Pt   16.298159   21.886984   16.315991
Pt   12.075380   23.340070   18.306530
Pt   12.666532   17.085845   19.926546
Pt   10.572807   18.948305   19.985712
Pt   12.792949   17.406207   15.849913
Pt   17.152835   11.399059   21.724787
Pt   14.403447   16.861149   26.068185
Pt   14.679601   15.006778   23.923779
Pt   14.265527   19.044119   24.223814
Pt   10.960184   14.989855   19.708317
Pt   22.315341   19.878256   24.575436
Pt   10.401975   18.652097   23.965368
Pt   8.623393   18.615022   21.848668
Pt   13.977613   23.382373   20.436756
Pt   14.249476   21.538109   18.239718
Pt   10.699665   19.239966   15.996577
Pt   8.772545   18.902948   17.949885
Pt   13.827497   23.071137   24.493945
Pt   14.419757   19.345130   20.157750
Pt   10.130406   22.907826   20.259727
Pt   14.108327   21.232062   22.355688
Pt   21.519725   9.970720   19.716557
Pt   16.021566   23.743091   18.465820
Pt   13.110428   13.207623   19.656858
Pt   14.833414   15.291002   19.873104
Pt   19.398626   9.687190   21.675127
Pt   14.548605   19.638092   16.085566
Pt   8.897877   16.823893   19.764564
Pt   18.531764   20.042865   16.299049
Pt   17.156833   13.814565   15.757547
Pt   10.780778   17.043990   17.777013
Pt   18.297998   19.468853   24.352009
Pt   18.941520   13.571179   21.956373
Pt   16.461019   17.208865   24.154816
Pt   22.232488   19.637712   28.548167
Pt   16.870964   13.226092   23.867377
Pt   22.954749   18.907096   10.446813
Pt   27.204591   12.642286   20.122380
Pt   14.761464   19.929922   12.189935
Pt   16.730364   17.791030   16.033221
Pt   14.827242   17.753438   13.943606
Pt   16.733196   15.349054   22.007477
Pt   20.916150   18.535192   12.277334
Pt   16.839108   20.273359   10.391763
Pt   14.681443   17.442583   17.956373
Pt   15.431497   29.326073   20.943470
Pt   16.873403   15.641907   17.906778
Pt   20.509603   17.679910   24.314013
Pt   17.674980   25.602419   22.800713
Pt   18.368087   22.239892   14.424359
Pt   10.350970   21.142007   18.061636
Pt   12.281649   18.702873   26.042849
Pt   17.672501   23.102522   28.518609
Pt   16.370933   16.977105   28.040101
Pt   16.034108   21.288171   24.448879
Pt   15.934363   20.948867   28.329205
Pt   16.466632   19.694044   18.217297
Pt   17.019192   15.941724   13.902163
Pt   14.113109   23.680457   16.370772
Pt   15.884904   23.429733   22.577544
Pt   18.093651   24.097976   16.542346
Pt   11.869204   25.086206   20.486319
Pt   16.190539   21.563041   20.382178
Pt   18.410664   19.753201   20.325665
Pt   18.246076   24.363177   12.559262
Pt   12.498533   16.810804   23.994170
Pt   12.230711   21.194570   20.213006
Pt   18.021005   21.307974   26.536105
Pt   11.925585   23.033024   22.393310
Pt   10.626894   16.741615   21.898299
Pt   23.392961   10.155044   21.816105
Pt   14.213575   18.762850   28.027227
Pt   17.690233   28.037376   16.822202
Pt   13.827414   25.519264   18.532080
Pt   15.451690   27.359653   22.851975
Pt   15.748018   25.564502   20.658091
Pt   15.609916   27.687469   18.752664
Pt   13.627090   27.253821   20.709865
Pt   15.753224   23.122776   26.584227
Pt   19.526407   30.078563   17.057628
Pt   13.681116   25.203656   22.616884
Pt   15.098662   13.459309   17.691707
Pt   21.054446   11.588607   25.829463
Pt   17.029880   13.503233   19.821239
Pt   23.178599   14.300994   18.030159
Pt   25.098987   14.349877   20.172484
Pt   17.294595   11.700261   17.635614
Pt   23.168427   11.873814   23.996939
Pt   19.091232   11.449822   23.819936
Pt   25.392103   10.562568   19.899762
Pt   16.610377   17.532969   20.102542
Pt   12.781090   14.942796   21.826888
Pt   16.223157   19.108799   26.277946
Pt   20.777947   20.683191   10.422199
Pt   19.010218   18.507330   10.273672
Pt   18.704371   20.335036   12.327470
Pt   23.169037   16.721574   12.179015
Pt   19.938828   23.815440   22.712371
Pt   19.375450   12.059959   15.699667
Pt   18.681278   17.878204   18.159774
Pt   21.474233   12.490233   13.871432
Pt   8.494599   20.694993   20.034049
Pt   22.751194   15.846300   24.295536
Pt   22.880246   13.699877   26.130966
Pt   12.365483   21.469395   16.131709
Pt   22.868583   16.151348   20.224665
Pt   20.754653   13.431735   27.856061
Pt   12.374692   18.989172   22.136079
Pt   19.568384   8.171343   19.505234
Pt   18.532157   15.131052   27.961399
Pt   20.181042   19.215662   30.203525
Pt   21.037850   13.990248   20.004626
Pt   22.292410   17.478256   30.122885
Pt   18.593851   22.447733   10.546936
Pt   18.800248   18.134819   14.140224
Pt   16.891043   18.096596   12.051872
Pt   16.461085   22.166008   12.335188
Pt   12.719724   19.583787   14.086110
Pt   20.355946   24.597335   10.824277
Pt   20.774111   18.221347   16.243021
Pt   15.888418   25.866564   16.596625
Pt   19.095532   16.305113   11.999857
Pt   24.956750   14.061734   24.229643
Pt   23.038605   16.410901   16.156145
Pt   22.434874   20.163779   20.488252
Pt   20.776453   15.804273   22.174341
Pt   18.818247   15.739830   20.050468
Pt   20.635864   17.944490   20.272150
Pt   21.189980   11.831704   21.870112
Pt   18.551287   17.592890   22.213361
Pt   16.595065   15.074775   26.006400
Pt   20.637106   15.508117   26.159662
Pt   28.103051   22.524374   24.919627
Pt   12.067560   20.866567   24.280104
Pt   14.953482   13.161389   21.772993
Pt   24.955002   18.918945   12.407339
Pt   19.242556   14.169563   13.840871
Pt   16.598515   19.985501   14.180790
Pt   20.495348   22.542561   12.554936
Pt   20.348855   22.279106   16.522682
Pt   14.398411   21.813594   14.225157
Pt   20.630365   20.391538   14.440173
Pt   24.126803   24.571877   18.810818
Pt   20.212794   21.972370   20.541748
Pt   23.836589   26.392811   20.997181
Pt   21.907927   26.358643   18.864752
Pt   17.823130   25.931185   18.687119
Pt   16.335547   19.402783   22.270130
Pt   20.097447   21.678460   24.616607
Pt   22.052262   21.736341   26.722413
Pt   17.395175   27.415241   24.955760
Pt   19.950770   21.430763   28.633047
Pt   25.886554   24.310051   24.997698
Pt   21.770609   23.608820   28.614242
Pt   19.659076   25.654261   24.876779
Pt   15.612627   25.240595   24.730202
Pt   17.981812   23.768832   20.601389
Pt   22.318472   24.773110   12.727215
Pt   19.808967   25.941271   20.817150
Pt   24.685417   20.809116   14.535462
Pt   19.362270   31.715243   19.192298
Pt   19.660152   28.130318   18.945188
Pt   17.268922   29.424434   23.058727
Pt   19.521046   27.763243   22.992981
Pt   21.572832   30.206615   19.063746
Pt   17.566963   25.293129   26.782035
Pt   17.568970   27.706939   20.880552
Pt   19.390966   27.443711   26.854009
Pt   21.896800   23.893367   24.858161
Pt   23.029604   14.005035   22.145696
Pt   20.209455   24.442297   14.640143
Pt   17.436461   29.802302   19.002288
Pt   19.796574   28.286664   14.948737
Pt   19.290282   29.921536   21.184534
Pt   21.771162   28.423102   16.946696
Pt   21.618187   10.475131   15.747749
Pt   24.357491   17.738259   28.400330
Pt   23.532375   10.460274   17.803744
Pt   18.946335   15.988686   15.982044
Pt   25.234409   12.224992   22.077339
Pt   17.424785   9.711626   19.550911
Pt   15.272584   11.449265   19.605002
Pt   12.928259   15.239402   17.742953
Pt   21.332398   14.600685   12.031259
Pt   21.186083   16.745697   10.287734
Pt   21.202171   14.224290   15.937972
Pt   25.253809   14.654349   16.108485
Pt   21.061619   16.354690   14.079260
Pt   18.257155   21.919296   18.437640
Pt   19.081216   13.863975   17.859444
Pt   20.913035   16.084855   18.106451
Pt   28.964583   14.806373   20.344687
Pt   18.802044   13.268751   25.939447
Pt   26.875242   16.532065   20.389342
Pt   23.268284   12.203827   19.948955
Pt   24.671882   15.904102   26.366715
Pt   21.331670   12.131896   17.848362
Pt   20.918647   13.634574   24.048609
Pt   28.501994   18.446040   24.658876
Pt   24.698518   21.068399   10.725004
Pt   16.165768   24.028853   14.464079
Pt   26.890300   18.980324   14.481276
Pt   22.536973   22.845326   10.712549
Pt   23.305802   14.587745   14.018713
Pt   26.448934   23.049436   14.739651
Pt   22.708969   20.742133   12.504775
Pt   27.035751   16.842698   16.331424
Pt   26.588227   20.860599   16.638272
Pt   18.666760   15.417328   24.103839
Pt   30.631827   16.994604   20.569736
Pt   28.586161   18.768213   20.608732
Pt   22.161385   22.031437   22.663299
Pt   18.118922   19.178309   28.423575
Pt   24.832738   18.617233   16.382043
Pt   20.222426   19.521540   26.554213
Pt   24.107409   22.097789   24.783440
Pt   17.835806   23.473236   24.686602
Pt   26.718827   16.254951   24.461909
Pt   22.437970   17.731733   26.463455
Pt   28.171016   20.354499   26.616430
Pt   28.475651   21.198203   14.763447
Pt   22.035923   26.618548   14.834176
Pt   22.185131   24.520381   16.718371
Pt   20.074898   26.468170   12.843216
Pt   24.404224   22.717489   16.663519
Pt   22.591057   20.456838   16.466610
Pt   24.521266   22.981579   12.678033
Pt   20.491957   20.103820   18.384011
Pt   23.745281   28.481336   19.086998
Pt   20.368613   19.821158   22.432867
Pt   22.301887   22.336961   18.602728
Pt   21.773965   26.034800   22.958789
Pt   23.692809   26.089240   25.052062
Pt   20.288237   17.280046   28.347180
Pt   27.933096   24.653282   23.073115
Pt   21.623444   25.739906   26.931777
Pt   25.568688   28.472769   21.213407
Pt   22.567088   15.556677   28.213417
Pt   28.764671   16.584412   22.526199
Pt   20.072642   24.128147   18.658319
Pt   17.968942   26.213360   14.680006
Pt   23.989325   26.678930   16.931012
Pt   21.602231   28.183889   21.045006
Pt   26.057197   24.599248   20.939705
Pt   22.589401   18.009221   22.389631
Pt   22.027008   24.181587   20.767591
Pt   19.235783   29.466189   25.045261
Pt   19.929196   26.288804   16.777724
Pt   21.483400   27.866115   25.098424
Pt   18.132135   21.622905   22.494507
Pt   19.783687   23.573835   26.808421
Pt   23.404499   30.206598   21.262338
Pt   21.220051   31.782141   21.202566
Pt   21.319716   29.928917   23.195627
Pt   21.339730   9.866204   23.699733
Pt   24.980631   16.479880   18.253492
Pt   27.162727   14.690660   18.214484
Pt   19.253221   11.720031   19.768633
Pt   19.542125   10.001061   17.586233
Pt   25.381332   12.525824   17.986239
Pt   18.414608   17.308871   26.241491
Pt   27.009538   14.400423   22.298127
Pt   28.586253   20.953206   18.668834
Pt   28.770206   19.071360   16.594722
Pt   25.112254   16.770888   14.252750
Pt   24.500370   20.512700   18.553650
Pt   30.130904   20.672900   24.739607
Pt   22.902767   18.555074   14.317909
Pt   22.725065   18.284923   18.328711
Pt   24.367886   20.224469   22.591596
Pt   26.758680   18.700682   18.471734
Pt   30.438425   18.816171   22.682313
Pt   26.422466   20.589977   20.627166
Pt   24.228905   22.392237   20.714614
Pt   26.289509   20.278542   24.700995
Pt   30.031777   22.797669   22.909350
Pt   26.437111   18.138000   26.550372
Pt   14.539288   17.147595   22.067418
Pt   24.312649   19.952451   26.701226
Pt   22.471844   22.657805   14.602933
Pt   28.268642   23.066787   16.827057
Pt   24.660352   18.351459   20.436642
Pt   28.322201   20.630336   22.752659
Pt   25.924163   26.731568   19.037928
Pt   28.262367   22.762410   20.819534
Pt   28.068906   24.931122   18.994329
Pt   23.833479   23.953280   26.879622
Pt   23.977694   24.258906   22.909338
Pt   24.256423   24.850339   14.805387
Pt   26.573538   18.378133   22.583060
Pt   26.175709   22.470711   22.833272
Pt   27.733182   26.729928   21.149685
Pt   25.750100   26.443836   23.114260
Pt   30.544625   19.056971   18.758097
Pt   26.191747   24.904009   16.886423
Pt   24.819671   16.185876   22.365940
Pt   26.322693   22.752169   18.758122
Pt   28.922946   16.874432   18.417857
Pt   29.760276   24.954207   21.147777
Pt   26.646264   21.136362   12.692244
Pt   24.518377   18.058306   24.539852
Pt   30.358707   20.884752   20.864619
Pt   23.553222   28.211697   23.168743
Pt   26.050948   22.158561   26.743766
