309
Generated with con2xyz
Pt   16.549295   16.085485   17.861111
Pt   18.759059   14.692795   18.811009
Pt   19.044809   16.798115   16.936136
Pt   17.208453   16.253092   20.566907
Pt   15.744975   22.203911   15.953763
Pt   19.395849   18.986914   15.123289
Pt   16.829556   18.265916   16.007352
Pt   14.430326   17.549777   17.075530
Pt   17.483669   18.491045   18.699077
Pt   17.902384   20.709331   16.904187
Pt   17.256604   20.495764   14.312340
Pt   14.977355   17.646015   19.695567
Pt   13.529004   19.475909   21.374782
Pt   15.670935   17.981799   22.356304
Pt   15.980747   20.181057   20.449629
Pt   14.266805   19.742400   24.040901
Pt   18.248918   22.937417   15.055577
Pt   12.985195   19.167835   18.754754
Pt   15.269544   20.028640   17.649297
Pt   16.388646   22.410668   18.666807
Pt   16.734663   24.630216   16.813608
Pt   13.812200   21.647014   19.515309
Pt   14.494626   21.911292   22.234725
Pt   14.839431   24.097410   20.423374
Pt   14.292761   23.802260   17.747739
Pt   20.987784   13.309392   19.778458
Pt   23.231508   12.029936   20.770039
Pt   23.554324   13.998744   18.887539
Pt   21.682150   13.486555   22.498841
Pt   21.638207   17.556907   16.094927
Pt   23.893134   16.157534   17.070889
Pt   24.237107   18.317945   15.287065
Pt   21.290973   15.382103   17.907705
Pt   19.760741   17.059882   19.671867
Pt   22.025547   15.654321   20.653207
Pt   22.387259   17.817521   18.809751
Pt   19.432288   14.861539   21.516878
Pt   17.915875   16.546177   23.279098
Pt   20.166948   15.149044   24.245699
Pt   20.496354   17.309980   22.429804
Pt   18.680803   16.821776   25.977523
Pt   19.773470   21.212192   13.433788
Pt   22.355667   21.966533   12.632943
Pt   31.424074   22.598213   17.358508
Pt   21.985183   19.749653   14.300894
Pt   20.481901   21.463070   16.037243
Pt   22.735592   19.997930   17.009210
Pt   23.081822   22.223838   15.230296
Pt   20.129583   19.232013   17.841046
Pt   18.636500   20.956357   19.649408
Pt   20.885422   19.526665   20.609418
Pt   21.235310   21.728154   18.791432
Pt   18.232683   18.725911   21.450250
Pt   16.739980   20.460427   23.191305
Pt   18.999874   18.995664   24.173786
Pt   19.377758   21.226691   22.367688
Pt   16.416409   18.255099   25.029300
Pt   15.030012   20.006672   26.716386
Pt   17.202851   18.523330   27.715932
Pt   17.514600   20.730980   25.909090
Pt   18.077765   25.089970   31.150316
Pt   23.429251   24.436502   13.450256
Pt   20.833016   23.674511   14.239986
Pt   19.334211   25.379822   15.980010
Pt   21.569728   23.953177   16.953326
Pt   21.928773   26.129237   15.170857
Pt   18.972549   23.198498   17.779720
Pt   17.453580   24.874291   19.568057
Pt   19.729464   23.430476   20.550982
Pt   20.072223   25.643192   18.704647
Pt   17.075025   22.673550   21.401472
Pt   15.588806   24.359794   23.145600
Pt   17.835468   22.946610   24.117663
Pt   18.187593   25.130443   22.317447
Pt   15.249962   22.176380   24.946527
Pt   16.032647   22.450173   27.650936
Pt   16.358291   24.628513   25.855461
Pt   20.442046   27.799707   16.904185
Pt   17.824761   27.047008   17.738322
Pt   15.291692   26.215087   18.630259
Pt   18.572993   27.314442   20.493265
Pt   18.953007   29.453845   18.656952
Pt   15.942384   26.530050   21.337934
Pt   16.704152   26.787110   24.068228
Pt   17.067194   28.943566   22.269631
Pt   16.391882   28.608818   19.539971
Pt   26.162873   14.776278   18.070495
Pt   28.359113   13.553901   19.151210
Pt   28.746004   15.619769   17.345751
Pt   25.810436   12.733966   19.953825
Pt   24.318103   14.320865   21.660780
Pt   26.585231   12.925818   22.647605
Pt   26.941105   15.095180   20.844686
Pt   23.989482   12.240043   23.458373
Pt   22.442861   13.770780   25.223196
Pt   23.262501   14.143724   27.889514
Pt   25.091295   14.596750   24.393995
Pt   21.786090   15.802485   29.609070
Pt   26.851737   19.095639   14.500611
Pt   29.089061   17.768865   15.568925
Pt   27.976084   21.577882   15.485051
Pt   26.520216   16.928381   16.278602
Pt   25.016891   18.586410   17.995505
Pt   27.323370   17.213886   19.013506
Pt   27.668252   19.372820   17.228052
Pt   24.657825   16.439341   19.791822
Pt   23.151648   18.122069   21.588742
Pt   25.437614   16.787198   22.589744
Pt   25.811240   18.901129   20.767631
Pt   22.765518   15.930315   23.422032
Pt   21.281272   17.582699   25.165435
Pt   23.595172   16.209861   26.168315
Pt   23.944715   18.399565   24.351399
Pt   20.960208   15.429559   26.965710
Pt   19.472697   17.109966   28.683314
Pt   20.342543   17.508413   31.246727
Pt   22.110888   17.877088   27.897051
Pt   21.417848   19.900816   32.218155
Pt   24.589199   20.505488   13.511507
Pt   26.056161   25.135920   12.785335
Pt   24.928050   22.718451   11.934802
Pt   30.519620   22.352183   14.724949
Pt   25.348269   20.758502   16.224388
Pt   23.850042   22.493610   17.980618
Pt   26.157211   21.065150   18.980114
Pt   26.470130   23.261224   17.241725
Pt   23.514388   20.296881   19.773470
Pt   22.011194   21.997669   21.536513
Pt   24.299582   20.572331   22.527201
Pt   24.651326   22.766868   20.713638
Pt   21.652950   19.795803   23.351548
Pt   20.153279   21.499736   25.083977
Pt   22.459006   20.071211   26.083906
Pt   22.793686   22.267880   24.284356
Pt   19.798826   19.268013   26.878256
Pt   15.875316   20.289898   29.334870
Pt   20.634411   19.602598   29.582934
Pt   20.986683   21.787473   27.769220
Pt   18.076687   18.883203   30.343857
Pt   19.144628   21.286163   31.319310
Pt   27.178645   21.329639   12.847052
Pt   24.552222   26.875855   14.376547
Pt   25.705348   22.991562   14.495173
Pt   26.831590   25.441870   15.426604
Pt   24.175635   24.718594   16.167981
Pt   22.695983   26.411016   17.889165
Pt   24.991815   24.976499   18.924999
Pt   25.353272   27.170047   17.112439
Pt   22.356637   24.200080   19.719766
Pt   20.859245   25.883967   21.481056
Pt   23.143826   24.462376   22.469398
Pt   23.502165   26.657745   20.660731
Pt   20.498818   23.700094   23.291776
Pt   18.965789   25.405830   25.047975
Pt   21.295113   23.983199   26.022762
Pt   21.642152   26.158572   24.229891
Pt   18.624882   23.226298   26.821041
Pt   17.152963   24.886833   28.575967
Pt   19.483662   23.466894   29.530657
Pt   19.790496   25.674844   27.785449
Pt   16.939065   22.687387   30.290802
Pt   18.364768   27.258975   29.461434
Pt   27.141092   27.524432   13.751713
Pt   23.076764   28.556276   16.095136
Pt   21.591752   30.203848   17.826098
Pt   23.868398   28.845752   18.844873
Pt   25.703131   29.230274   15.383844
Pt   21.202652   28.073381   19.639853
Pt   17.493311   30.977047   20.444468
Pt   22.025495   28.316038   22.428575
Pt   22.370184   30.467524   20.630559
Pt   19.323057   27.566312   23.244051
Pt   17.842895   29.194004   25.013447
Pt   20.138971   27.842706   25.997712
Pt   20.528893   29.972144   24.161333
Pt   17.494224   27.053285   26.803259
Pt   18.707630   29.398328   27.696684
Pt   19.097979   31.456845   25.915103
Pt   24.237188   30.884077   17.094694
Pt   19.717236   29.759265   21.429378
Pt   20.154127   31.819313   19.602647
Pt   18.262124   31.310567   23.229297
Pt   18.684720   33.146273   21.363575
Pt   29.610180   15.828751   20.014900
Pt   29.136818   13.739850   21.830270
Pt   27.716079   15.362777   23.577795
Pt   27.316152   13.257883   25.338694
Pt   29.859431   14.040092   24.515295
Pt   24.727793   12.577649   26.137472
Pt   25.891803   14.833934   27.165799
Pt   28.502242   15.582567   26.347037
Pt   29.378274   19.941905   13.873507
Pt   29.960478   17.979880   18.216120
Pt   28.498317   19.654596   19.965014
Pt   30.751587   18.256121   20.936094
Pt   31.097589   20.417962   19.146582
Pt   28.148439   17.515631   21.765042
Pt   26.609818   19.184555   23.532833
Pt   28.899816   17.769119   24.532344
Pt   29.293186   19.944844   22.710762
Pt   26.258030   17.005590   25.386048
Pt   24.766803   18.648472   27.122212
Pt   27.029569   17.265623   28.103280
Pt   27.406579   19.433362   26.308223
Pt   24.403014   16.486735   28.900446
Pt   22.926035   18.165030   30.622676
Pt   25.547212   18.922785   29.830551
Pt   28.321373   23.753231   13.693069
Pt   29.102568   24.029428   16.414172
Pt   30.302431   20.151896   16.441110
Pt   29.396160   26.155278   14.664943
Pt   28.833710   21.826495   18.195299
Pt   27.302588   23.542548   19.929200
Pt   29.624520   22.105370   20.910804
Pt   29.944539   24.318987   19.109279
Pt   26.956445   21.342798   21.713512
Pt   25.428019   23.029958   23.454426
Pt   27.743886   21.627342   24.456822
Pt   28.071254   23.796734   22.658103
Pt   25.097911   20.843751   25.281427
Pt   23.603420   22.549418   27.022569
Pt   25.896293   21.096216   28.045822
Pt   26.210940   23.306531   26.184482
Pt   23.288036   20.331227   28.840473
Pt   22.536417   22.317419   33.073982
Pt   24.041449   20.607377   31.551748
Pt   24.380442   22.822034   29.774830
Pt   18.358066   21.017474   28.601398
Pt   21.758032   22.053431   30.513486
Pt   31.586068   24.755390   15.676018
Pt   28.003272   27.923935   16.325892
Pt   30.258067   26.519460   17.305592
Pt   27.656011   25.776618   18.139276
Pt   26.165169   27.464705   19.849841
Pt   28.447329   26.039647   20.845828
Pt   28.781280   28.210552   19.052597
Pt   25.792136   25.237916   21.648425
Pt   24.291158   26.913688   23.408710
Pt   26.552751   25.486793   24.383260
Pt   26.952698   27.716441   22.571575
Pt   23.925132   24.740500   25.222471
Pt   22.434912   26.465960   27.000390
Pt   24.711681   25.045534   27.984157
Pt   25.059436   27.212224   26.189343
Pt   22.108613   24.288081   28.779595
Pt   20.607623   25.938213   30.520844
Pt   22.869697   24.533749   31.496599
Pt   23.222809   26.721675   29.714868
Pt   20.282737   23.705090   32.171125
Pt   26.526590   29.598675   18.038373
Pt   25.073180   31.255790   19.777472
Pt   27.308853   29.877494   20.784672
Pt   24.674922   29.134261   21.603496
Pt   23.202098   30.852044   23.397153
Pt   25.427180   29.365790   24.345108
Pt   21.616958   32.246910   25.154744
Pt   22.802020   28.631756   25.195252
Pt   21.315709   30.246451   26.980261
Pt   23.579817   28.878970   27.932028
Pt   23.931669   31.005363   26.110947
Pt   20.941384   28.100009   28.750237
Pt   22.792337   32.448866   18.835904
Pt   23.545821   32.764324   21.458362
Pt   20.932312   32.173027   22.400160
Pt   31.027135   16.356926   25.449686
Pt   31.865796   20.696285   21.834235
Pt   30.375476   16.067690   22.734664
Pt   30.046779   20.224461   25.463661
Pt   32.133805   18.737375   26.358100
Pt   31.497995   18.464042   23.651134
Pt   29.634046   18.009954   27.273240
Pt   28.158555   19.707978   29.023086
Pt   30.712781   20.457547   28.157571
Pt   32.428592   25.048739   18.295262
Pt   32.211407   22.875185   20.057945
Pt   30.693930   24.572271   21.844081
Pt   32.928691   23.170538   22.759752
Pt   33.123005   25.309038   20.954586
Pt   30.424772   22.412582   23.681451
Pt   28.882629   24.107968   25.409906
Pt   32.627472   20.859757   24.490997
Pt   28.706941   30.263850   26.182323
Pt   28.511852   21.904958   27.210056
Pt   26.971241   23.585826   28.922771
Pt   29.163715   22.179867   29.858252
Pt   33.507121   23.220432   25.400688
Pt   26.649359   21.372372   30.756649
Pt   25.105578   23.074122   32.374626
Pt   27.629937   23.819189   31.517138
Pt   31.039504   26.798786   20.013138
Pt   31.725809   26.989762   22.711421
Pt   30.231052   28.648975   24.485806
Pt   29.218296   26.263298   23.596256
Pt   27.685685   27.934767   25.320431
Pt   29.943587   26.539894   26.318711
Pt   29.569088   28.465740   21.779481
Pt   27.348600   25.773661   27.137327
Pt   25.844719   27.472490   28.905292
Pt   28.018134   26.004160   29.810607
Pt   26.540091   31.630915   25.242489
Pt   25.470543   25.301960   30.700769
Pt   28.072872   30.144304   23.501919
Pt   25.800792   31.506227   22.527476
Pt   28.394148   28.162706   27.994811
Pt   26.186003   29.639283   27.111757
Pt   31.093510   22.738463   26.460413
Pt   31.510876   24.887575   24.570563
Pt   33.133205   21.122544   27.110680
Pt   29.560937   24.392183   28.159223
