309
Generated with con2xyz
Pt   10.326056   16.234056   20.193250
Pt   12.217506   14.206696   20.194991
Pt   12.138444   16.134539   18.146216
Pt   12.133948   16.132767   22.244320
Pt   10.329822   20.199691   16.235714
Pt   12.138900   18.148909   16.134202
Pt   12.218330   20.199401   14.207015
Pt   10.262617   18.211003   18.208293
Pt   10.182608   20.199916   20.195020
Pt   12.180145   18.181184   20.197834
Pt   12.182715   20.199920   18.182965
Pt   10.255416   18.209586   22.178800
Pt   10.313872   20.197495   24.150274
Pt   12.128221   18.146908   24.253055
Pt   12.176741   20.200186   22.213767
Pt   12.201476   20.193982   26.175814
Pt   12.138585   22.250375   16.134327
Pt   10.264023   22.188360   18.210685
Pt   10.326989   24.163213   20.197170
Pt   12.182882   22.218005   20.201167
Pt   12.139880   24.263356   18.149662
Pt   10.253872   22.188252   22.179940
Pt   12.125321   22.249609   24.255046
Pt   12.136609   24.262076   22.249178
Pt   12.219342   26.187816   20.200980
Pt   14.207730   12.216168   20.195549
Pt   16.235441   10.325670   20.195110
Pt   16.134916   12.137020   18.146416
Pt   16.133892   12.133004   22.246228
Pt   14.127556   16.123727   16.123096
Pt   16.123750   14.126983   16.122913
Pt   16.123130   16.123041   14.125788
Pt   14.124425   14.123477   18.154787
Pt   14.128117   16.126596   20.198684
Pt   16.127064   14.126815   20.198554
Pt   16.119680   16.119548   18.138534
Pt   14.121987   14.120669   22.237613
Pt   14.122056   16.119835   24.265809
Pt   16.121607   14.119990   24.267767
Pt   16.119898   16.118363   22.260676
Pt   16.117033   16.114058   26.257530
Pt   14.207320   20.199133   12.216940
Pt   16.134044   18.148032   12.136758
Pt   16.235374   20.199187   10.327791
Pt   14.123568   18.156419   14.122630
Pt   14.127865   20.199674   16.126563
Pt   16.118588   18.137161   16.118657
Pt   16.126219   20.199337   14.126838
Pt   14.139273   18.133395   18.134271
Pt   14.211502   20.200180   20.205315
Pt   16.159763   18.160849   20.204179
Pt   16.156447   20.199738   18.160260
Pt   14.138074   18.133725   22.264272
Pt   14.125646   20.200911   24.265934
Pt   16.120691   18.138990   24.275855
Pt   16.168249   20.203212   22.250858
Pt   14.113594   18.150791   26.257776
Pt   14.186946   20.186123   28.158283
Pt   16.121576   18.136183   28.234464
Pt   16.123076   20.202700   26.259816
Pt   16.214394   20.175538   30.047198
Pt   16.133602   22.250637   12.135927
Pt   14.123002   22.242330   14.122013
Pt   14.126510   24.274789   16.122409
Pt   16.118159   22.261554   16.117724
Pt   16.121920   24.275614   14.123913
Pt   14.139396   22.265780   18.134385
Pt   14.132462   24.269378   20.204436
Pt   16.160370   22.240315   20.204693
Pt   16.119467   24.278663   18.137552
Pt   14.144998   22.265336   22.272205
Pt   14.126886   24.270553   24.271377
Pt   16.138501   22.262495   24.291073
Pt   16.128961   24.277478   22.273083
Pt   14.105076   22.238050   26.258693
Pt   16.104963   22.246263   28.243655
Pt   16.123026   24.268079   26.275934
Pt   16.121473   26.270970   16.119863
Pt   14.124949   26.271370   18.158166
Pt   14.208121   28.174161   20.201420
Pt   16.130082   26.265665   20.205017
Pt   16.131613   28.256133   18.145535
Pt   14.125854   26.269820   22.244345
Pt   16.129511   26.277206   24.279951
Pt   16.138109   28.256409   22.253347
Pt   16.228270   30.063962   20.193688
Pt   18.149016   12.137962   16.133864
Pt   20.200364   10.329142   16.235444
Pt   20.199976   12.218116   14.207189
Pt   18.211872   10.262001   18.209009
Pt   18.181863   12.179180   20.198222
Pt   20.201189   10.183614   20.197087
Pt   20.200046   12.181662   18.182144
Pt   18.211599   10.257354   22.182565
Pt   18.149442   12.129068   24.258005
Pt   20.202016   10.320044   24.156413
Pt   20.201189   12.177359   22.215387
Pt   20.202089   12.207214   26.183213
Pt   18.148526   16.133959   12.137148
Pt   20.199929   14.207632   12.217896
Pt   20.199931   16.235062   10.328272
Pt   18.156714   14.123501   14.122944
Pt   18.137048   16.118784   16.118682
Pt   20.199753   14.127653   16.126352
Pt   20.199873   16.126767   14.127698
Pt   18.132911   14.138335   18.133429
Pt   18.159639   16.158662   20.203357
Pt   20.199402   14.209300   20.202935
Pt   20.198990   16.156255   18.159023
Pt   18.133786   14.135442   22.265203
Pt   18.139861   16.116452   24.277384
Pt   20.202647   14.123772   24.269672
Pt   20.200122   16.162375   22.248105
Pt   18.155092   14.111920   26.264176
Pt   18.138501   16.119307   28.238834
Pt   20.199773   14.192342   28.165845
Pt   20.202648   16.120433   26.265904
Pt   20.183536   16.216069   30.048899
Pt   18.211109   18.210527   10.262448
Pt   18.181494   20.199171   12.179909
Pt   20.199934   18.181166   12.180244
Pt   20.199900   20.199323   10.184975
Pt   18.132341   18.132276   14.137398
Pt   18.158454   20.199569   16.156895
Pt   20.199604   18.159319   16.157603
Pt   20.199863   20.198593   14.206511
Pt   18.163840   18.164932   18.165096
Pt   18.171771   20.201524   20.200378
Pt   20.197671   18.171511   20.199180
Pt   20.199034   20.201583   18.172715
Pt   18.169378   18.168845   22.243523
Pt   18.182199   20.206350   24.264701
Pt   20.201945   18.175168   24.262712
Pt   20.194474   20.203688   22.226817
Pt   18.132677   18.131195   26.250975
Pt   18.181015   20.203340   28.189083
Pt   20.197930   18.182673   28.194436
Pt   20.242489   20.239331   26.262111
Pt   18.189771   18.191606   30.110723
Pt   20.141530   20.154719   30.150864
Pt   18.211039   22.188193   10.262346
Pt   18.148231   24.265175   12.136185
Pt   20.199942   22.217374   12.179762
Pt   20.199813   24.164100   10.328063
Pt   18.131914   22.266058   14.135795
Pt   18.136004   24.279204   16.115326
Pt   20.199615   22.238491   16.154526
Pt   20.199880   24.272124   14.125592
Pt   18.163948   22.234861   18.164501
Pt   18.160374   24.241623   20.203140
Pt   20.198543   22.235766   20.203564
Pt   20.199090   24.239344   18.153286
Pt   18.172466   22.237718   22.241534
Pt   18.175159   24.279551   24.294280
Pt   20.200517   22.254693   24.258857
Pt   20.200575   24.266815   22.259666
Pt   18.190018   22.271226   26.283682
Pt   18.127541   24.179702   28.215929
Pt   20.249434   22.289631   28.330053
Pt   20.204913   24.337630   26.364402
Pt   18.151573   22.134120   30.079009
Pt   20.199735   26.192214   12.216900
Pt   18.156096   26.275742   14.121318
Pt   18.147427   28.261262   16.131456
Pt   20.199482   26.270816   16.123407
Pt   20.199367   28.181848   14.205848
Pt   18.130609   26.258835   18.128084
Pt   18.176383   28.211389   20.195588
Pt   20.198906   26.185007   20.187430
Pt   20.198540   28.216965   18.177747
Pt   18.144969   26.254538   22.282565
Pt   18.162165   28.244459   24.234298
Pt   20.199774   26.334322   24.367188
Pt   20.198265   28.190121   22.205195
Pt   18.104080   26.198823   26.228743
Pt   20.198482   30.070470   16.233767
Pt   18.207556   30.132541   18.209512
Pt   20.196655   30.206351   20.196050
Pt   18.204113   30.135364   22.182719
Pt   20.196331   30.084524   24.050949
Pt   22.251260   12.137544   16.133598
Pt   22.189285   10.263915   18.210939
Pt   22.218188   12.182228   20.200557
Pt   24.165051   10.329721   20.199665
Pt   24.265270   12.137787   18.148034
Pt   22.191237   10.259056   22.184730
Pt   22.253853   12.132083   24.261004
Pt   24.264447   12.140345   22.251745
Pt   22.251272   16.133971   12.137186
Pt   22.243042   14.123419   14.123059
Pt   22.262263   16.118782   16.118728
Pt   24.276209   14.126138   16.122385
Pt   24.276386   16.122952   14.125912
Pt   22.266603   14.137600   18.132423
Pt   22.238711   16.156978   20.199792
Pt   24.271546   14.128271   20.200013
Pt   24.280079   16.118653   18.137000
Pt   22.265882   14.141461   22.270836
Pt   22.259618   16.130118   24.290495
Pt   24.272816   14.134981   24.279042
Pt   24.276779   16.120342   22.262176
Pt   22.247479   14.116612   26.268931
Pt   22.261212   16.125505   28.250283
Pt   24.269219   16.146657   26.283292
Pt   22.188707   18.210466   10.262314
Pt   22.218376   20.199175   12.179750
Pt   24.265621   18.147994   12.136656
Pt   24.164433   20.199066   10.327488
Pt   22.267297   18.132333   14.137416
Pt   22.240702   20.199524   16.156996
Pt   24.280618   18.137110   16.118711
Pt   24.273329   20.199300   14.126803
Pt   22.234121   18.165222   18.165151
Pt   22.225080   20.202173   20.200413
Pt   24.240515   18.159889   20.199947
Pt   24.242162   20.199760   18.159810
Pt   22.228642   18.164366   22.233436
Pt   22.222428   20.203146   24.229635
Pt   24.269977   18.139927   24.276938
Pt   24.238572   20.202641   22.240541
Pt   22.259393   18.168828   26.287937
Pt   22.263847   20.260500   28.335926
Pt   24.218211   18.214069   28.241022
Pt   24.233621   20.205055   26.255972
Pt   22.127260   18.164515   30.084475
Pt   22.188700   22.188168   10.262164
Pt   22.251468   24.265177   12.135986
Pt   24.266094   22.250546   12.135609
Pt   22.267793   22.266028   14.135778
Pt   22.263135   24.279084   16.115624
Pt   24.281012   22.261301   16.118017
Pt   24.277314   24.275377   14.123904
Pt   22.234499   22.234900   18.164613
Pt   22.238715   24.243574   20.200343
Pt   24.240525   22.241406   20.201397
Pt   24.280335   24.279265   18.136718
Pt   22.226877   22.243074   22.234817
Pt   22.229597   24.281515   24.294935
Pt   24.269087   22.266396   24.275927
Pt   24.273504   24.280933   22.266295
Pt   22.226640   22.250805   26.273631
Pt   22.327842   24.218467   28.116530
Pt   24.276099   22.234899   28.145440
Pt   24.311805   24.282586   26.253494
Pt   22.243150   26.275713   14.121351
Pt   22.250591   28.262078   16.130766
Pt   24.277311   26.271271   16.119199
Pt   22.267886   26.259824   18.127334
Pt   22.220662   28.213124   20.194528
Pt   24.270032   26.268649   20.201832
Pt   24.266022   28.257833   18.143148
Pt   22.253832   26.255351   22.280577
Pt   22.237438   28.253387   24.225053
Pt   24.278876   26.287529   24.261700
Pt   24.261145   28.263649   22.244435
Pt   22.306449   26.222031   26.212339
Pt   22.187833   30.134057   18.208694
Pt   24.167328   30.069001   20.187880
Pt   22.188551   30.140965   22.177138
Pt   26.191202   12.218617   20.200595
Pt   26.272302   16.122642   16.122265
Pt   26.274881   14.122730   18.155722
Pt   26.270134   16.126038   20.199392
Pt   28.179402   14.205638   20.199017
Pt   28.260423   16.132211   18.146377
Pt   26.273239   14.124792   22.244194
Pt   26.267578   16.125743   24.275305
Pt   28.260150   16.132018   22.248584
Pt   26.192239   20.198932   12.216703
Pt   26.275789   18.156191   14.122656
Pt   26.271537   20.199306   16.126333
Pt   28.261278   18.147577   16.133137
Pt   28.181226   20.198751   14.206553
Pt   26.261202   18.132047   18.132410
Pt   26.191422   20.199231   20.199993
Pt   28.218468   18.178390   20.197463
Pt   28.218881   20.198064   18.180520
Pt   26.258683   18.133179   22.265673
Pt   26.267983   20.197968   24.271888
Pt   28.261990   18.145473   24.256304
Pt   28.221000   20.196245   22.214062
Pt   26.261361   18.154379   26.273853
Pt   26.204371   20.210538   28.076882
Pt   28.205318   20.189234   26.169130
Pt   26.276282   22.241980   14.121940
Pt   26.272922   24.274456   16.121418
Pt   28.261999   22.249169   16.132904
Pt   26.261463   22.265662   18.132920
Pt   26.270664   24.270722   20.200751
Pt   28.220979   22.216648   20.197375
Pt   28.261548   24.262571   18.145857
Pt   26.260056   22.263840   22.265435
Pt   26.291012   24.279032   24.249015
Pt   28.281449   22.243591   24.243590
Pt   28.273478   24.262403   22.238502
Pt   26.301317   22.249674   26.246861
Pt   26.274860   26.272226   18.155404
Pt   26.191790   28.179033   20.193062
Pt   28.185108   26.189209   20.191719
Pt   26.280786   26.276891   22.232308
Pt   30.070309   16.229882   20.195269
Pt   30.071147   20.197644   16.233576
Pt   30.136430   18.207221   18.207771
Pt   30.217019   20.194482   20.193943
Pt   30.141069   18.203237   22.180264
Pt   30.091068   20.188615   24.142947
Pt   30.138663   22.185614   18.207408
Pt   30.078993   24.161543   20.188393
Pt   30.151383   22.181888   22.172343
