309
Generated with con2xyz
Pt   22.964694   19.708336   11.559629
Pt   22.657006   19.731541   14.241134
Pt   22.331437   19.752754   17.098015
Pt   22.002636   19.780581   19.964596
Pt   21.673308   19.809144   22.839953
Pt   21.345788   19.839541   25.706349
Pt   21.024446   19.867320   28.564076
Pt   20.721758   19.893570   31.244244
Pt   25.039136   20.654368   13.112434
Pt   24.758547   20.691059   15.879439
Pt   24.417184   20.703444   18.760689
Pt   24.089830   20.733838   21.650878
Pt   23.755682   20.762200   24.539304
Pt   23.445766   20.797741   27.418865
Pt   23.096200   20.812225   30.177539
Pt   22.624176   22.138856   12.825378
Pt   22.305701   22.200719   15.587299
Pt   21.980639   22.206076   18.465705
Pt   21.651330   22.238575   21.358343
Pt   21.319876   22.268539   24.244774
Pt   20.995518   22.311313   27.126970
Pt   20.686284   22.299341   29.891125
Pt   20.474381   20.290282   12.597795
Pt   20.119926   20.323518   15.358707
Pt   19.804902   20.339314   18.239610
Pt   19.471811   20.367467   21.126236
Pt   19.145020   20.397284   24.012510
Pt   18.804136   20.431666   26.895461
Pt   18.529949   20.452295   29.665013
Pt   21.558314   17.651461   12.750789
Pt   21.218132   17.640626   15.515573
Pt   20.895666   17.677227   18.397731
Pt   20.558885   17.696485   21.276132
Pt   20.234527   17.734471   24.156768
Pt   19.901236   17.751530   27.036946
Pt   21.333265   15.905995   28.650404
Pt   24.381053   17.881160   13.067906
Pt   24.086791   17.872383   15.836202
Pt   23.745519   17.902038   18.717578
Pt   23.412364   17.929420   21.599338
Pt   23.080811   17.961762   24.487226
Pt   22.770865   17.982737   27.367392
Pt   17.372710   18.354561   28.179459
Pt   27.117563   21.605869   14.791810
Pt   26.835223   21.644022   17.559359
Pt   26.493069   21.660774   20.444222
Pt   26.161211   21.689997   23.345857
Pt   25.848055   21.726021   26.231073
Pt   25.499155   21.744198   28.992374
Pt   24.724491   23.131380   14.425545
Pt   24.411698   23.165147   17.241512
Pt   24.065686   23.160275   20.140363
Pt   23.728691   23.192743   23.066005
Pt   23.420431   23.250020   25.967291
Pt   23.095105   23.267075   28.781025
Pt   22.267974   24.587322   14.214674
Pt   21.951310   24.646719   16.978267
Pt   21.630460   24.652639   19.864881
Pt   21.293196   24.695676   22.755625
Pt   20.971366   24.731964   25.646709
Pt   20.663138   24.722553   28.413674
Pt   20.092015   22.766292   13.907489
Pt   19.761452   22.807710   16.722138
Pt   19.456221   22.804353   19.619763
Pt   19.124322   22.837134   22.537223
Pt   18.772015   22.881543   25.441913
Pt   18.462300   22.900473   28.260502
Pt   17.954398   20.880038   13.750062
Pt   17.603603   20.913325   16.514826
Pt   17.290013   20.931722   19.403067
Pt   16.959037   20.959815   22.305253
Pt   16.613609   20.996745   25.191593
Pt   16.334906   21.022237   27.963115
Pt   19.014045   18.215502   13.822540
Pt   18.672009   18.228046   16.640108
Pt   18.366825   18.251946   19.547689
Pt   18.033994   18.280865   22.455445
Pt   17.674529   18.312818   25.356762
Pt   19.610716   17.814725   29.805771
Pt   20.130220   15.578434   14.063409
Pt   19.784844   15.568043   16.845474
Pt   19.447165   15.585627   19.702627
Pt   19.113296   15.614388   22.597766
Pt   18.796944   15.651734   25.456638
Pt   18.505900   15.715467   28.243444
Pt   22.973799   15.767802   14.303906
Pt   22.643650   15.768343   17.122546
Pt   22.296792   15.817658   20.023147
Pt   21.959270   15.845889   22.925132
Pt   21.645184   15.853084   25.830273
Pt   23.090478   14.054684   27.438109
Pt   25.801922   16.046924   14.692731
Pt   25.508138   16.043069   17.464101
Pt   25.171665   16.076677   20.355968
Pt   24.824426   16.111314   23.247270
Pt   24.183373   16.184217   28.900993
Pt   22.435507   18.041421   30.130077
Pt   26.506417   18.814257   14.672533
Pt   26.196910   18.834869   17.491048
Pt   25.837311   18.857615   20.394530
Pt   25.501582   18.889480   23.312359
Pt   25.209886   18.911768   26.210093
Pt   24.871841   18.946862   29.023291
Pt   29.194260   22.556353   16.484888
Pt   28.913049   22.598862   19.272613
Pt   29.982939   20.770442   23.763823
Pt   28.258067   22.657000   25.010813
Pt   27.903618   22.675049   27.790992
Pt   26.812667   24.081130   16.099290
Pt   26.487734   24.119933   18.925127
Pt   26.117740   24.095383   21.846551
Pt   25.821494   24.177793   24.772673
Pt   25.506657   24.195101   27.598093
Pt   24.366001   25.580272   15.806919
Pt   24.063355   25.608424   18.634871
Pt   23.692957   25.589011   21.555548
Pt   23.397548   25.669597   24.482803
Pt   23.067647   25.694828   27.308428
Pt   21.903682   27.038308   15.618186
Pt   21.589318   27.087236   18.412033
Pt   21.250670   27.148381   21.248320
Pt   23.364583   28.056561   22.934577
Pt   20.644396   27.141459   26.925617
Pt   19.741339   25.231307   15.294720
Pt   19.402114   25.271999   18.126185
Pt   19.118044   25.259311   21.014520
Pt   18.746140   25.299193   23.957592
Pt   18.440898   25.325860   26.790355
Pt   17.563911   23.344983   15.051906
Pt   17.246445   23.391874   17.882865
Pt   16.959391   23.372227   20.812872
Pt   16.581199   23.444803   23.732608
Pt   16.257449   23.463275   26.558643
Pt   15.429115   21.465965   14.924804
Pt   15.076956   21.499378   17.708486
Pt   14.748229   21.526949   20.579269
Pt   14.422228   21.557789   23.449611
Pt   14.141357   21.584058   26.239801
Pt   16.489541   18.818968   14.965504
Pt   16.162232   18.820541   17.798792
Pt   15.886845   18.862805   20.732571
Pt   15.492399   18.878843   23.653334
Pt   15.173302   18.934407   26.487793
Pt   17.588505   16.133230   15.118875
Pt   17.245975   16.145817   17.972928
Pt   16.930401   16.156382   20.876564
Pt   16.579964   16.202745   23.775670
Pt   16.268793   16.246792   26.632946
Pt   20.183093   11.671791   16.976258
Pt   18.319971   13.413143   18.122785
Pt   18.012313   13.510226   21.025672
Pt   19.390100   11.593595   22.653023
Pt   19.204413   11.753191   25.493837
Pt   21.527719   13.687586   15.609557
Pt   21.183878   13.690450   18.466108
Pt   20.823974   13.721956   21.345467
Pt   20.519622   13.745384   24.231203
Pt   20.210268   13.799286   27.090993
Pt   24.407541   13.937489   15.917870
Pt   24.066696   13.955454   18.747470
Pt   23.723157   14.045812   21.674748
Pt   23.391013   14.013616   24.604716
Pt   24.820692   12.186857   26.194139
Pt   27.216130   14.212156   16.335848
Pt   24.367304   10.136682   18.938212
Pt   26.627284   14.236498   22.020312
Pt   24.517331   16.129519   26.137051
Pt   25.942608   14.325513   27.651058
Pt   27.927858   16.973222   16.296400
Pt   27.616063   17.006183   19.129460
Pt   27.239889   17.019221   22.072803
Pt   26.970465   17.041669   24.962356
Pt   26.626038   17.070213   27.794082
Pt   28.591488   19.773047   16.345660
Pt   28.274173   19.786898   19.171610
Pt   27.877931   19.820709   22.091510
Pt   27.609689   19.839665   25.023058
Pt   27.276264   19.889704   27.851137
Pt   31.228469   23.492596   18.221961
Pt   31.048214   23.578730   20.995260
Pt   30.726722   23.610694   23.792846
Pt   30.276360   23.587948   26.537249
Pt   28.889162   25.034167   17.781296
Pt   28.588274   22.628122   22.142309
Pt   28.209207   25.080622   23.515865
Pt   27.907531   25.127113   26.403517
Pt   26.463911   26.543679   17.497169
Pt   26.124121   26.561668   20.375745
Pt   25.800900   26.590677   23.228071
Pt   25.486464   26.631448   26.108455
Pt   24.031271   28.022457   17.198652
Pt   23.684859   28.028647   20.085316
Pt   25.770962   28.993538   21.755222
Pt   23.049536   28.113116   25.825902
Pt   21.626208   29.388967   17.070393
Pt   21.236131   29.594342   19.818817
Pt   20.640296   29.518002   25.397462
Pt   23.031145   30.361889   24.264484
Pt   19.396572   27.649225   16.711551
Pt   18.744306   27.684339   22.414430
Pt   18.440715   29.992584   23.786658
Pt   18.417260   27.736051   25.315880
Pt   17.210996   25.805640   16.436042
Pt   16.899004   25.834428   19.345128
Pt   16.564677   25.857634   22.192682
Pt   16.229669   25.897496   25.070066
Pt   15.042676   23.931267   16.219350
Pt   14.746936   23.953743   19.113217
Pt   14.421827   23.984120   21.961754
Pt   14.064901   24.026089   24.845212
Pt   12.939170   22.037919   16.155086
Pt   12.487598   22.096116   18.900775
Pt   12.169058   22.129619   21.696058
Pt   11.994224   22.129739   24.471859
Pt   13.964293   19.399605   16.137028
Pt   13.668067   19.412305   19.031691
Pt   13.342641   19.442634   21.881775
Pt   12.979797   19.489565   24.769610
Pt   15.053084   16.747183   16.266842
Pt   14.739682   16.757204   19.176770
Pt   14.412667   16.786784   22.027853
Pt   14.060236   16.834653   24.933864
Pt   18.720219   13.552788   15.405231
Pt   15.796101   14.047918   19.258896
Pt   17.653197   13.468189   23.923053
Pt   17.429066   13.662008   26.656676
Pt   21.594210   9.951620   18.623421
Pt   16.898441   11.492286   19.567980
Pt   16.592934   11.517328   22.230148
Pt   15.178975   14.262720   25.049133
Pt   24.045666   10.083135   21.752939
Pt   19.718644   11.566932   19.788180
Pt   20.952582   10.006990   24.244796
Pt   27.569444   12.491535   26.344282
Pt   22.976851   11.860482   17.226619
Pt   22.628299   11.918916   20.124717
Pt   21.265953   9.910358   21.434187
Pt   21.981872   11.946745   25.881874
Pt   26.926133   14.210090   19.129893
Pt   25.472843   12.161628   20.452307
Pt   23.724285   10.194067   24.562539
Pt   26.505478   10.472900   24.853179
Pt   28.588603   12.401271   18.017756
Pt   27.120437   10.404108   19.268234
Pt   25.818448   12.101700   17.561400
Pt   26.269808   14.279522   24.856565
Pt   29.340037   15.144892   17.926394
Pt   28.994289   15.191296   20.826764
Pt   28.761316   15.124305   23.740835
Pt   28.348651   15.224765   26.529493
Pt   30.023212   17.926635   17.990327
Pt   29.679581   17.958567   20.867557
Pt   29.347820   17.973964   23.715907
Pt   29.028654   18.015065   26.625004
Pt   30.669453   20.722191   18.030402
Pt   30.310077   20.741928   20.914646
Pt   31.927156   21.697825   25.365267
Pt   29.679909   20.816888   26.658403
Pt   28.533013   25.050184   20.666799
Pt   30.521310   26.008474   22.324400
Pt   30.172163   25.966500   25.112567
Pt   28.467208   27.401630   19.225655
Pt   28.186426   27.511056   22.042954
Pt   27.829442   27.464340   24.853207
Pt   26.044274   28.891960   18.940344
Pt   30.807268   25.900373   19.529940
Pt   25.411668   28.949807   24.565030
Pt   23.631767   30.308606   18.674480
Pt   23.369830   30.397881   21.462238
Pt   20.935198   29.646622   22.627980
Pt   19.048594   27.791987   19.507672
Pt   18.703315   30.023177   21.057923
Pt   20.949894   27.156103   24.136115
Pt   16.870940   28.089667   17.882010
Pt   16.557548   28.262835   20.712682
Pt   16.288407   28.223267   23.544605
Pt   14.750025   26.306866   17.679956
Pt   14.391596   26.414777   20.492529
Pt   14.119818   26.372392   23.313983
Pt   12.670644   24.451872   17.487188
Pt   12.316338   24.558220   20.271704
Pt   12.040495   24.519124   23.068356
Pt   11.602769   19.959104   17.408008
Pt   11.220475   19.932225   20.193200
Pt   10.967913   20.021412   22.991530
Pt   12.620331   17.361313   17.519214
Pt   12.237905   17.330097   20.331244
Pt   11.975847   17.421499   23.156316
Pt   13.714755   14.806664   17.641844
Pt   13.355511   14.691437   20.482273
Pt   13.062642   14.865455   23.328016
Pt   16.165716   14.177600   16.453209
Pt   14.512281   12.129632   20.637771
Pt   15.453311   14.076996   22.235741
Pt   22.301828   11.947394   22.978776
Pt   26.813652   10.366667   22.071937
Pt   25.147399   12.189985   23.301344
Pt   30.620190   13.415588   19.600838
Pt   28.050911   12.369518   23.603802
Pt   28.375317   12.314776   20.797527
Pt   30.378672   13.422357   22.331938
Pt   31.075837   16.124302   22.503231
Pt   30.669933   16.272771   25.324916
Pt   31.318572   16.122252   19.669070
Pt   31.737379   18.899630   22.539971
Pt   31.334948   18.969133   25.350596
Pt   32.570277   21.629824   19.778995
Pt   31.979970   18.901060   19.714087
Pt   32.324799   21.627624   22.581377
