309
Generated with con2xyz
Pt   25.781969   21.416884   13.076806
Pt   23.496113   20.669880   11.572271
Pt   20.933422   20.104863   18.633955
Pt   20.845141   22.640331   22.930904
Pt   24.833207   14.250185   26.042912
Pt   20.526721   16.311400   27.364883
Pt   22.896800   21.017331   28.713649
Pt   20.529109   20.339591   29.966553
Pt   23.508187   30.418008   17.149606
Pt   23.536963   23.168330   12.887688
Pt   26.028282   16.820136   20.324922
Pt   23.523662   25.646436   14.260525
Pt   23.127440   20.895267   23.036909
Pt   23.043793   23.458021   27.299597
Pt   20.731031   20.217213   24.397109
Pt   21.222491   19.937549   10.186115
Pt   21.145165   22.483613   14.236922
Pt   21.034738   20.049089   15.758353
Pt   20.833910   20.162145   21.519781
Pt   20.945281   25.051338   21.443709
Pt   20.737310   22.717712   25.820760
Pt   20.637256   22.735870   28.600626
Pt   21.234351   22.388514   11.455638
Pt   16.418918   21.683470   15.522478
Pt   18.672996   20.884061   17.082850
Pt   18.573649   20.940101   19.979304
Pt   18.454223   23.515424   24.307109
Pt   18.355986   21.069327   25.772144
Pt   18.291857   21.115842   28.553463
Pt   19.709523   18.034096   11.500464
Pt   23.894116   16.000127   13.110592
Pt   19.494466   18.126995   17.177825
Pt   20.695899   12.107813   18.738099
Pt   19.386814   18.175465   20.067135
Pt   16.815641   19.145937   27.174062
Pt   19.103021   18.384836   28.630786
Pt   22.557683   17.975628   11.589770
Pt   21.039976   16.020341   12.947709
Pt   24.808671   18.739438   15.853659
Pt   15.681227   16.968034   17.058610
Pt   19.178695   18.292489   25.848577
Pt   22.171279   18.172800   23.060411
Pt   20.625326   20.282342   27.270029
Pt   24.882659   18.690835   13.019500
Pt   30.761335   18.197172   17.527162
Pt   26.964312   19.537536   20.309752
Pt   23.238017   20.837696   20.137105
Pt   28.189227   17.623377   24.762418
Pt   25.282307   21.707799   27.336067
Pt   23.364653   23.261334   18.641453
Pt   25.689974   24.004534   20.166050
Pt   23.463355   23.237468   15.725849
Pt   28.125355   24.744086   18.778497
Pt   23.140678   25.876937   25.832590
Pt   23.033469   20.967993   25.934065
Pt   21.132194   19.992154   12.884276
Pt   25.542478   26.562107   24.456648
Pt   16.389992   29.094684   22.583750
Pt   20.949891   22.586412   20.031605
Pt   23.254118   25.818521   22.993011
Pt   20.746342   25.147919   27.122853
Pt   18.872690   23.265464   12.721356
Pt   18.770069   23.333937   15.554042
Pt   18.579684   23.424521   21.402400
Pt   18.678384   23.366274   18.472800
Pt   16.099918   24.349712   25.605770
Pt   18.367060   23.558456   27.138629
Pt   16.518847   24.112243   14.053173
Pt   18.175801   16.119917   12.947071
Pt   10.436173   21.348234   16.868429
Pt   16.236141   21.787791   21.337781
Pt   18.474377   20.995843   22.880253
Pt   16.046428   21.907190   27.020770
Pt   19.589029   18.058803   14.283322
Pt   13.441369   17.799170   15.508537
Pt   13.130103   17.973986   24.200785
Pt   16.326682   21.741739   18.429583
Pt   13.980247   15.286704   24.196074
Pt   16.900575   19.076186   24.340668
Pt   17.208751   18.897129   15.592458
Pt   12.031225   16.004627   17.024136
Pt   15.594086   16.985399   19.956774
Pt   19.293366   18.236266   22.949742
Pt   19.259027   10.389564   20.319196
Pt   17.666542   16.412554   27.163130
Pt   17.729191   12.434249   24.402426
Pt   18.893870   20.764273   11.406462
Pt   22.276690   18.120610   20.167175
Pt   23.614611   16.144552   21.699482
Pt   20.723145   16.186499   21.604886
Pt   23.394971   16.291564   27.403442
Pt   25.238351   14.027593   14.641525
Pt   18.055360   16.140299   15.743459
Pt   22.156531   14.193538   20.215397
Pt   27.454310   14.762350   18.943130
Pt   22.073898   18.229505   25.962082
Pt   21.952654   18.322649   28.742186
Pt   28.015276   22.162448   14.600929
Pt   22.268847   14.077666   17.313342
Pt   20.830341   16.148116   18.699170
Pt   24.581627   18.848671   21.694283
Pt   23.516576   16.201908   24.618830
Pt   24.373846   18.981440   27.449331
Pt   28.403525   17.510542   18.885283
Pt   25.512435   21.574440   21.642590
Pt   25.720551   26.417170   18.677682
Pt   28.303034   17.570076   21.895898
Pt   27.667689   22.405905   25.941049
Pt   27.549799   14.715894   16.059769
Pt   23.444274   20.737492   14.357141
Pt   16.570919   28.980625   16.916398
Pt   23.321865   25.699358   20.051052
Pt   25.451149   24.146364   25.916937
Pt   21.229928   24.861983   12.842379
Pt   25.565917   24.102998   23.065389
Pt   25.654962   21.526542   18.752404
Pt   21.142117   29.967685   18.481945
Pt   25.573732   28.885807   22.897882
Pt   16.190467   24.314120   22.755178
Pt   21.049923   22.525203   17.134760
Pt   23.337645   20.783758   17.252741
Pt   23.337686   28.199423   21.435324
Pt   20.842057   25.128298   24.341582
Pt   11.883561   23.274539   15.492940
Pt   21.047195   24.990748   18.527127
Pt   18.778257   28.251293   18.408734
Pt   20.853071   27.561940   25.625155
Pt   18.484018   25.978518   25.669821
Pt   16.549372   21.613805   12.741092
Pt   17.326772   18.847886   12.759375
Pt   16.313312   26.697133   21.215555
Pt   11.569370   23.453751   21.089821
Pt   13.876721   22.654252   22.653380
Pt   16.422170   24.184032   16.899603
Pt   11.828603   25.829336   19.532500
Pt   11.622505   23.387988   23.871925
Pt   15.791864   16.922589   14.191393
Pt   12.455266   20.673435   21.204532
Pt   12.627549   20.551657   15.430932
Pt   12.557447   20.614144   18.340230
Pt   14.571082   19.950444   25.655624
Pt   17.032023   19.006307   21.424261
Pt   12.322389   20.719726   24.108862
Pt   14.285094   15.112736   15.689600
Pt   14.117401   15.067857   18.511506
Pt   26.519424   12.013005   19.015402
Pt   18.030836   12.332742   15.867702
Pt   16.262964   14.297090   22.895474
Pt   14.978622   19.711529   14.079017
Pt   17.746565   16.320242   24.364302
Pt   19.078044   14.338721   25.913494
Pt   21.985684   14.282831   26.037870
Pt   17.890849   12.230957   18.700181
Pt   25.155288   14.046691   17.452363
Pt   17.933923   16.177863   18.617994
Pt   16.655534   14.250068   14.434996
Pt   17.834116   16.224569   21.487770
Pt   20.625482   16.229037   24.529802
Pt   22.385352   14.037885   14.460624
Pt   25.079407   14.103488   20.345250
Pt   24.998193   10.240439   17.596454
Pt   22.074939   14.217312   23.184802
Pt   25.812358   16.931007   26.117249
Pt   24.693129   18.798366   18.776056
Pt   22.486075   18.000596   14.374208
Pt   24.956229   14.162677   23.238305
Pt   20.858796   12.151799   15.910370
Pt   26.246540   12.243022   24.624600
Pt   23.819633   16.022800   15.896895
Pt   22.381690   18.067186   17.270727
Pt   26.140701   16.756448   17.379855
Pt   24.494097   18.911375   24.616612
Pt   26.759341   19.676723   26.089528
Pt   27.352505   14.818436   21.881999
Pt   26.217652   16.701810   14.530617
Pt   31.603724   20.851197   17.642772
Pt   27.243018   14.882477   24.767327
Pt   34.031077   17.083842   20.600172
Pt   32.935394   18.947655   19.079666
Pt   31.647562   20.994977   20.444359
Pt   27.936345   22.314259   20.254805
Pt   27.793336   22.347253   23.121967
Pt   29.979461   22.975338   24.527777
Pt   30.300231   22.887152   18.972169
Pt   29.337377   20.237864   18.918492
Pt   23.245905   28.288924   24.340091
Pt   21.142030   24.952738   15.623821
Pt   25.776130   23.970277   17.267600
Pt   23.475261   30.530914   19.957141
Pt   23.324795   30.530431   22.765477
Pt   18.892183   30.525174   16.991459
Pt   25.732704   21.486489   15.877104
Pt   27.820402   24.811950   24.481684
Pt   25.759621   28.775850   17.235717
Pt   20.945874   27.544287   22.823517
Pt   18.560479   25.925320   22.823756
Pt   25.726364   28.894103   20.064814
Pt   21.051646   30.023361   21.295795
Pt   25.814545   26.395924   15.764323
Pt   18.713988   30.634279   22.610216
Pt   16.512698   26.604390   15.459220
Pt   18.587861   28.392386   24.180204
Pt   21.140169   27.427916   17.050933
Pt   18.696146   25.809971   19.888072
Pt   18.682215   28.305143   21.273627
Pt   16.218733   26.770274   24.138494
Pt   18.874812   25.748817   14.107737
Pt   14.876034   19.758108   16.925053
Pt   14.065056   22.534116   16.897093
Pt   13.875282   25.119571   24.042784
Pt   14.200274   22.458112   14.093819
Pt   14.078874   27.475649   19.701071
Pt   14.832887   19.833139   19.870388
Pt   10.240908   21.491817   22.481283
Pt   13.869453   25.124934   21.220731
Pt   15.475294   17.085088   22.850604
Pt   13.266197   17.925316   21.289374
Pt   15.380526   17.160564   25.718142
Pt   11.866915   16.034481   19.842511
Pt   13.951668   22.622315   19.797035
Pt   14.017487   15.125639   21.371050
Pt   10.989272   18.787351   22.584157
Pt   16.472308   14.171863   17.199197
Pt   14.176723   24.955272   15.392147
Pt   17.132210   18.953975   18.511023
Pt   19.175116   14.258280   23.039742
Pt   11.011570   18.703768   19.757477
Pt   31.009454   13.605589   19.165700
Pt   19.250062   14.184184   20.126192
Pt   11.829054   16.119572   22.661913
Pt   19.397807   14.151049   17.261640
Pt   23.731169   12.070984   15.973627
Pt   19.190370   10.504136   23.070512
Pt   20.555304   12.316649   24.588450
Pt   20.940259   16.056958   15.783021
Pt   23.512884   12.212984   21.765414
Pt   20.659343   12.281824   21.657587
Pt   28.843893   12.830573   17.657883
Pt   19.501548   14.095373   14.376254
Pt   32.026012   16.215610   19.090105
Pt   22.274970   10.285195   17.461407
Pt   23.419842   12.241068   24.676531
Pt   24.860043   10.218101   20.416431
Pt   28.497881   17.459578   16.016793
Pt   26.417630   12.060678   21.863397
Pt   24.769803   10.346951   23.232115
Pt   29.424066   20.169761   16.044263
Pt   31.923323   16.272228   21.994678
Pt   28.783351   12.778310   20.503009
Pt   30.558903   18.307447   23.381565
Pt   28.022835   24.810588   21.652401
Pt   27.179620   19.453251   14.510479
Pt   29.261084   20.297579   21.827024
Pt   25.933803   16.868995   23.267643
Pt   32.827739   19.003065   21.964160
Pt   25.624281   26.479611   21.544659
Pt   27.090600   19.499215   17.360366
Pt   25.416912   21.654063   24.553744
Pt   23.451563   25.694846   17.109854
Pt   27.772274   27.175409   22.994176
Pt   23.255372   23.322635   21.557731
Pt   29.137467   20.348438   24.713113
Pt   21.231117   29.767997   15.709681
Pt   23.159445   23.412269   24.469235
Pt   25.836162   23.913212   14.389563
Pt   18.872391   28.222548   15.506220
Pt   21.042891   27.485910   19.936953
Pt   28.022237   24.682254   15.933313
Pt   23.528619   28.116463   15.664507
Pt   23.433131   28.140053   18.569935
Pt   21.229261   27.336378   14.250253
Pt   16.420486   26.651615   18.352106
Pt   20.958852   29.933858   24.076363
Pt   18.767721   25.806642   16.948277
Pt   14.229438   27.353317   16.863404
Pt   16.320591   24.203459   19.859728
Pt   27.919660   27.170791   20.166041
Pt   18.742012   30.638251   19.798196
Pt   16.418552   29.099628   19.745472
Pt   14.095787   25.008782   18.309178
Pt   11.192030   18.669949   16.931509
Pt   14.122285   27.497698   22.554227
Pt   10.268524   21.398479   19.683368
Pt   11.968020   25.714872   16.797877
Pt   13.797006   22.705981   25.464133
Pt   18.762707   20.832627   14.185546
Pt   14.670407   19.873959   22.811800
Pt   16.114076   21.862485   24.238655
Pt   11.641812   23.388118   18.268228
Pt   17.738613   12.282082   21.566667
Pt   16.260131   14.480174   25.647946
Pt   13.368715   17.866612   18.422874
Pt   16.373594   14.222902   20.033870
Pt   23.603065   12.153790   18.901489
Pt   22.069672   10.239170   20.309346
Pt   21.985831   10.379092   23.146882
Pt   23.721753   16.094065   18.804499
Pt   26.553174   12.086925   16.235398
Pt   30.910481   13.659641   21.955051
Pt   28.640261   12.940282   23.340175
Pt   29.815380   15.475756   17.543769
Pt   29.683104   15.561187   20.476020
Pt   26.877285   19.598236   23.242121
Pt   30.204076   22.981930   21.777787
Pt   28.109263   22.278229   17.351707
Pt   29.609199   15.588678   23.414168
Pt   31.436647   21.005149   23.282677
Pt   30.676444   18.251711   20.454653
Pt   27.957103   27.064255   17.341229
