309
Generated with con2xyz
Pt   17.004933   14.618421   18.415562
Pt   19.440776   13.498974   19.074799
Pt   19.272833   15.688259   17.306495
Pt   17.813676   14.711949   21.029447
Pt   15.057324   20.608473   16.797688
Pt   19.130875   17.987291   15.605384
Pt   16.788997   16.813581   16.636459
Pt   14.474215   18.110624   16.030589
Pt   17.678890   17.056479   19.295842
Pt   17.470029   19.345981   17.555285
Pt   16.715990   19.147056   14.957094
Pt   15.394497   15.854566   20.363026
Pt   13.856234   17.263316   22.250116
Pt   16.202838   16.066300   22.992146
Pt   16.065071   18.411444   21.260502
Pt   14.678812   17.503568   24.876179
Pt   17.409750   21.705844   15.826418
Pt   12.936674   19.401421   17.901283
Pt   15.122082   18.035534   18.628923
Pt   15.868057   20.690495   19.505728
Pt   15.770169   23.081495   17.821484
Pt   13.576514   19.510331   20.545935
Pt   14.419393   19.765884   23.215664
Pt   14.280054   22.059366   21.509132
Pt   13.498203   21.848135   18.873509
Pt   21.939747   12.443211   19.797266
Pt   24.429448   11.488640   20.544502
Pt   24.300048   13.563881   18.762086
Pt   22.823750   12.599518   22.465099
Pt   21.641595   16.893309   16.326783
Pt   24.157423   15.829364   17.057130
Pt   24.021621   18.093982   15.379969
Pt   21.778750   14.610563   18.032906
Pt   20.174005   15.937012   20.001170
Pt   22.690095   14.872368   20.730459
Pt   22.555955   17.149809   18.989640
Pt   20.314131   13.646316   21.729535
Pt   18.714455   14.978208   23.696392
Pt   21.222902   13.915801   24.413200
Pt   21.074821   16.181518   22.709198
Pt   19.639436   15.249324   26.343264
Pt   19.049352   20.322473   14.006224
Pt   21.400903   21.510991   13.070580
Pt   30.595510   23.369240   17.182698
Pt   21.502851   19.187833   14.642035
Pt   19.874079   20.550738   16.578355
Pt   22.416940   19.435959   17.296766
Pt   22.263327   21.757993   15.627422
Pt   20.034224   18.238303   18.258539
Pt   18.439328   19.632109   20.254405
Pt   20.953155   18.517394   20.984020
Pt   20.813866   20.825330   19.275184
Pt   18.561219   17.263802   21.991598
Pt   16.944392   18.652810   23.935299
Pt   19.477145   17.526460   24.656210
Pt   19.344880   19.869867   22.942665
Pt   17.109066   16.343531   25.635434
Pt   15.608669   17.772568   27.513482
Pt   18.058489   16.613443   28.274068
Pt   17.880921   18.921020   26.590894
Pt   18.182035   23.097727   31.994976
Pt   22.127511   24.081200   13.953027
Pt   19.756478   22.880932   14.878191
Pt   18.139369   24.239698   16.822426
Pt   20.635873   23.138690   17.546619
Pt   20.513021   25.431327   15.872981
Pt   18.247910   21.929961   18.508112
Pt   16.650488   23.256099   20.499232
Pt   19.204154   22.177338   21.233537
Pt   19.037304   24.479420   19.488636
Pt   16.774482   20.976787   22.227119
Pt   15.188459   22.314676   24.181727
Pt   17.699230   21.234284   24.903400
Pt   17.556767   23.518394   23.208809
Pt   15.341721   20.024058   25.873727
Pt   16.290898   20.306185   28.521615
Pt   16.125465   22.584188   26.837579
Pt   18.924286   26.762627   17.801540
Pt   16.536081   25.581256   18.790945
Pt   14.258146   24.342098   19.833248
Pt   17.447389   25.798998   21.480358
Pt   17.342884   28.092923   19.763884
Pt   15.057477   24.597504   22.481197
Pt   15.983231   24.846864   25.159598
Pt   15.864572   27.122470   23.465475
Pt   15.042706   26.843894   20.797781
Pt   26.688186   14.780640   17.808600
Pt   29.129416   13.879706   18.661730
Pt   29.046030   16.058565   16.954689
Pt   26.803449   12.625717   19.588492
Pt   25.229966   13.874745   21.487793
Pt   27.760023   12.816890   22.224021
Pt   27.625803   15.092191   20.531657
Pt   25.368622   11.689216   23.176713
Pt   23.755770   12.870766   25.138464
Pt   24.718944   13.243841   27.753531
Pt   26.169721   14.142748   24.167249
Pt   23.143853   14.570753   29.673069
Pt   26.414585   19.312900   14.454072
Pt   28.909949   18.313895   15.286979
Pt   27.210178   21.897354   15.495658
Pt   26.564200   17.042133   16.124226
Pt   24.961127   18.362320   18.036240
Pt   27.526265   17.327027   18.803136
Pt   27.387793   19.594084   17.125890
Pt   25.085233   16.105445   19.725541
Pt   23.483872   17.447111   21.719853
Pt   26.020931   16.444883   22.474453
Pt   25.913657   18.675190   20.757063
Pt   23.597056   15.136488   23.449944
Pt   22.019580   16.450929   25.391008
Pt   24.587965   15.415734   26.139053
Pt   24.443492   17.720437   24.430935
Pt   22.179634   14.192669   27.080137
Pt   20.590669   15.537028   28.995927
Pt   21.588924   15.952189   31.507602
Pt   23.006280   16.748547   28.066578
Pt   22.350225   18.441654   32.537137
Pt   23.889399   20.386820   13.710526
Pt   27.065987   24.180047   13.812684
Pt   23.758023   22.696495   12.239268
Pt   29.535483   23.101664   14.610104
Pt   24.808804   20.636129   16.371574
Pt   23.202631   22.030375   18.325445
Pt   25.774216   20.946304   19.076072
Pt   25.603037   23.237801   17.445715
Pt   23.356862   19.731373   20.012627
Pt   21.753649   21.088303   21.973992
Pt   24.307386   20.005608   22.715713
Pt   24.164752   22.308869   21.010218
Pt   21.889622   18.778075   23.679057
Pt   20.288225   20.137976   25.612650
Pt   22.860795   19.053966   26.359432
Pt   22.701536   21.356982   24.670536
Pt   20.435719   17.799987   27.302805
Pt   16.608742   18.076381   30.078683
Pt   21.422354   18.142268   29.952685
Pt   21.286579   20.435245   28.243606
Pt   19.074547   16.991544   30.849309
Pt   19.832135   19.493122   31.882861
Pt   26.259181   21.643299   12.912898
Pt   22.909180   26.627014   14.942265
Pt   24.673207   22.971322   14.751469
Pt   25.467045   25.527747   15.736451
Pt   23.025342   24.350158   16.621402
Pt   21.441717   25.698307   18.532899
Pt   24.016140   24.615273   19.324389
Pt   23.872749   26.917120   17.616377
Pt   21.604228   23.393045   20.260340
Pt   20.001557   24.718948   22.216198
Pt   22.557605   23.661089   22.963757
Pt   22.430572   25.948476   21.251591
Pt   20.138482   22.438665   23.929740
Pt   18.505969   23.791314   25.892133
Pt   21.106553   22.723732   26.610514
Pt   20.963556   24.993568   24.928019
Pt   18.657204   21.517092   27.555209
Pt   17.093685   22.856405   29.494606
Pt   19.688564   21.778076   30.199514
Pt   19.506406   24.078475   28.567644
Pt   17.364013   20.575569   31.092159
Pt   17.992685   25.360591   30.412180
Pt   25.301022   27.715227   14.178657
Pt   21.324020   27.972806   16.861301
Pt   19.732629   29.288900   18.796107
Pt   22.287401   28.247557   19.541232
Pt   23.736654   29.093188   16.006874
Pt   19.857089   27.008413   20.469116
Pt   18.312724   28.309172   22.477828
Pt   20.859513   27.223889   23.210873
Pt   15.907909   29.281330   21.775077
Pt   18.372364   26.043257   24.197223
Pt   16.807317   27.382024   26.136963
Pt   19.362664   26.342332   26.888422
Pt   19.257899   28.575188   25.158204
Pt   16.947973   25.128428   27.828672
Pt   17.849482   27.611197   28.742637
Pt   17.756951   29.787500   27.033519
Pt   25.649825   29.749092   21.263646
Pt   20.707599   29.521305   21.512665
Pt   18.228158   30.522551   20.815496
Pt   16.795981   29.584751   24.410317
Pt   20.071608   31.044980   26.094998
Pt   30.078481   16.286298   19.561759
Pt   30.087098   14.080343   21.284219
Pt   28.567891   15.357276   23.209953
Pt   28.650229   13.144620   24.867768
Pt   30.972471   14.388518   23.920184
Pt   26.266209   12.014158   25.808449
Pt   27.143739   14.373045   26.882306
Pt   29.534433   15.579226   25.924295
Pt   28.724372   20.579345   13.705736
Pt   29.943548   18.543331   17.872860
Pt   28.374156   19.880010   19.802384
Pt   30.895392   18.826439   20.541798
Pt   30.756413   21.088410   18.869560
Pt   28.507665   17.628300   21.496083
Pt   26.872941   18.954987   23.468703
Pt   29.430393   17.868933   24.208276
Pt   29.315501   20.161892   22.483853
Pt   27.017757   16.656193   25.210409
Pt   25.432218   17.965356   27.144978
Pt   27.952653   16.902181   27.875404
Pt   27.828620   19.186900   26.188276
Pt   25.555339   15.687338   28.815961
Pt   23.978656   17.036960   30.736811
Pt   26.371304   18.228945   29.798483
Pt   24.546377   25.224824   13.149044
Pt   28.006530   24.454172   16.477248
Pt   29.802219   20.819412   16.209940
Pt   27.816076   26.681582   14.847172
Pt   28.228942   22.158009   18.145164
Pt   26.589402   23.533018   20.081004
Pt   29.174297   22.436158   20.802028
Pt   29.003676   24.753592   19.114225
Pt   26.730025   21.229312   21.755078
Pt   25.101108   22.576324   23.704118
Pt   27.653758   21.517159   24.448182
Pt   27.510870   23.794368   22.764481
Pt   25.267055   20.279216   25.419888
Pt   23.686426   21.645472   27.354022
Pt   26.244069   20.525479   28.123881
Pt   26.076959   22.864156   26.386789
Pt   23.859430   19.318954   29.059187
Pt   22.221032   20.698786   30.936112
Pt   24.763415   19.581485   31.725189
Pt   24.625798   21.909649   30.053891
Pt   18.884812   19.220819   29.222117
Pt   23.142498   20.970030   33.445694
Pt   30.281778   25.601555   15.623352
Pt   26.291338   28.131335   16.694097
Pt   28.824216   27.059028   17.427115
Pt   26.446688   25.868895   18.390012
Pt   24.855706   27.214967   20.293800
Pt   27.395675   26.140774   21.040880
Pt   27.236995   28.418492   19.347448
Pt   24.979214   24.889500   22.006637
Pt   23.398603   26.220510   23.966289
Pt   25.933254   25.136332   24.705725
Pt   25.807631   27.481378   22.974462
Pt   23.517543   23.936994   25.667792
Pt   21.930817   25.307598   27.646703
Pt   24.486592   24.242785   28.372320
Pt   24.342524   26.512056   26.692768
Pt   22.090778   23.036817   29.310812
Pt   20.491252   24.360048   31.234766
Pt   23.010463   23.282543   31.973615
Pt   22.883762   25.577165   30.296121
Pt   20.644203   22.029665   32.780893
Pt   24.696118   29.472923   18.601060
Pt   23.116455   30.793749   20.538101
Pt   28.179484   28.683942   21.998443
Pt   23.281920   28.529798   22.234508
Pt   21.497493   31.979210   22.497447
Pt   24.191843   28.799400   24.950446
Pt   21.647229   29.793371   24.193978
Pt   21.804236   27.562130   25.958635
Pt   20.202371   28.888425   27.877568
Pt   22.738596   27.837959   28.621888
Pt   22.577186   30.109063   26.915418
Pt   20.336482   26.629251   29.564546
Pt   22.155929   30.417379   17.922174
Pt   20.607158   31.648718   19.865539
Pt   19.116397   30.848529   23.459412
Pt   31.835647   16.830619   24.902184
Pt   31.690224   21.370819   21.538066
Pt   31.016154   16.545228   22.230507
Pt   31.058122   22.973775   26.175478
Pt   30.190846   20.431506   25.178306
Pt   31.824473   19.076202   23.212019
Pt   30.342591   18.108473   26.906611
Pt   28.757747   19.435055   28.846258
Pt   31.041037   20.653650   27.804749
Pt   31.275643   25.904801   18.188994
Pt   31.541453   23.643449   19.834919
Pt   29.906036   25.004470   21.797205
Pt   32.355787   23.895807   22.485149
Pt   32.126520   26.138679   20.816285
Pt   30.083631   22.738210   23.512299
Pt   28.552394   24.107347   25.478712
Pt   32.548643   19.339981   25.842678
Pt   27.367340   30.151239   26.544446
Pt   28.625016   21.765750   27.136037
Pt   26.995779   23.107352   29.073536
Pt   29.431135   21.931248   29.786498
Pt   32.498022   21.601359   24.182969
Pt   27.139512   20.767090   30.794255
Pt   25.498399   22.151666   32.609456
Pt   27.804740   23.296026   31.619399
Pt   29.770692   27.334383   20.077897
Pt   31.531759   25.495023   27.101052
Pt   24.922194   31.241163   25.874059
Pt   28.335884   26.370832   23.728603
Pt   26.705928   27.707774   25.669071
Pt   29.960387   26.767916   28.946308
Pt   30.611369   27.520797   22.724700
Pt   26.934426   25.439164   27.407306
Pt   25.277837   26.772157   29.339892
Pt   27.749776   25.645054   30.049718
Pt   22.430654   32.187688   25.129285
Pt   25.394062   24.481977   31.036832
Pt   26.556089   30.034590   23.929455
Pt   24.039623   31.074809   23.207902
Pt   27.603572   27.969943   28.327594
Pt   25.102251   29.061224   27.647496
Pt   30.913652   25.297712   24.455951
Pt   28.989838   28.920729   24.613868
Pt   29.281231   26.744146   26.353362
Pt   29.436700   24.242766   28.205306
