309
Generated with con2xyz
Pt   14.239020   20.516710   15.826833
Pt   15.924046   18.397744   16.545980
Pt   14.903568   22.184490   13.645557
Pt   13.833438   22.681032   17.603067
Pt   13.346728   24.370787   13.067975
Pt   14.654890   24.477025   15.445431
Pt   12.649617   22.669475   15.130104
Pt   14.239572   26.771480   17.202578
Pt   15.314876   26.277167   13.245868
Pt   12.333978   24.837870   16.812297
Pt   13.595829   24.954061   19.268469
Pt   16.321370   28.624574   17.520366
Pt   15.023714   28.422682   15.051531
Pt   17.632429   16.293772   17.269555
Pt   19.357047   14.210358   17.996498
Pt   18.277179   17.939774   15.105669
Pt   17.207256   18.426525   19.027537
Pt   17.304480   21.821438   12.240853
Pt   19.014829   19.682520   12.977605
Pt   19.717834   21.443225   10.866537
Pt   16.578572   20.052373   14.382052
Pt   16.262790   22.292195   16.153191
Pt   17.951264   20.167821   16.877903
Pt   18.685621   21.913774   14.706031
Pt   15.510267   20.542009   18.305357
Pt   13.029539   26.537587   14.748718
Pt   16.884649   20.654722   20.776143
Pt   17.605771   22.408423   18.657528
Pt   16.558387   22.901007   22.499352
Pt   20.477097   23.240247   8.874116
Pt   15.667567   23.996143   11.617496
Pt   17.714720   25.881397   11.845997
Pt   19.419042   23.712177   12.583974
Pt   18.066814   23.617270   10.234284
Pt   17.007707   24.093249   13.973439
Pt   16.681360   26.393871   15.755703
Pt   18.380042   24.200701   16.491084
Pt   19.098994   25.997565   14.313155
Pt   17.297489   24.692013   20.387756
Pt   15.931447   24.591872   17.936444
Pt   14.958594   25.055028   21.712043
Pt   18.024919   26.494796   18.259599
Pt   15.182720   22.802889   20.058679
Pt   16.346178   25.147511   24.147199
Pt   17.700874   28.717799   19.995319
Pt   19.824357   27.742845   12.195355
Pt   17.395018   28.135289   13.595022
Pt   17.093739   30.256466   15.387078
Pt   18.775106   28.249537   16.096408
Pt   19.491230   29.976282   13.936414
Pt   19.172228   32.075300   15.722122
Pt   15.591391   26.859334   19.664181
Pt   18.412438   30.455340   17.862767
Pt   21.618198   31.768769   14.308410
Pt   29.141144   15.452877   20.510526
Pt   21.127553   12.217230   18.727645
Pt   21.743278   13.765588   16.547449
Pt   22.148837   14.400920   22.901565
Pt   20.734258   17.567170   13.709078
Pt   22.482752   15.465431   14.435654
Pt   23.203802   17.193527   12.329824
Pt   19.997515   15.845814   15.832155
Pt   19.667238   18.055244   17.606465
Pt   21.397517   15.965381   18.335375
Pt   22.139735   17.664273   16.177643
Pt   18.926669   16.330994   19.753974
Pt   18.605028   18.533705   21.505514
Pt   20.347835   16.428022   22.250343
Pt   21.061155   18.152390   20.123903
Pt   20.023799   18.620651   23.970821
Pt   22.894895   22.868381   7.605340
Pt   22.149700   21.046543   9.518562
Pt   24.585106   20.802092   8.281303
Pt   21.468356   19.301783   11.603391
Pt   21.135008   21.534546   13.311523
Pt   22.864843   19.404066   14.061672
Pt   23.614025   21.150734   11.947909
Pt   20.400145   19.781572   15.443135
Pt   20.088256   22.048042   17.227294
Pt   21.828217   19.910115   17.965724
Pt   22.553251   21.666312   15.825284
Pt   19.323414   20.271124   19.387943
Pt   18.999580   22.509002   21.125198
Pt   20.735713   20.369271   21.861750
Pt   21.496419   22.147472   19.718965
Pt   18.283303   20.751645   23.226510
Pt   17.958021   22.991887   24.926673
Pt   19.705678   20.830894   25.670121
Pt   20.415261   22.603245   23.579610
Pt   16.969388   26.955847   22.108085
Pt   24.972486   24.647086   7.896402
Pt   20.124741   25.503012   10.468485
Pt   26.660153   22.583740   8.576762
Pt   22.560439   25.138786   9.113745
Pt   21.848027   23.333668   11.211475
Pt   21.539645   25.609100   12.918008
Pt   23.293611   23.432088   13.686572
Pt   24.019109   25.225008   11.551542
Pt   20.824935   23.814408   15.080152
Pt   20.493816   26.075158   16.837047
Pt   22.229328   23.919388   17.580468
Pt   22.950945   25.685462   15.434765
Pt   19.762671   24.303857   18.979030
Pt   19.418136   26.592683   20.726853
Pt   21.178930   24.403072   21.452186
Pt   21.904846   26.178115   19.326905
Pt   18.692269   24.787326   22.831487
Pt   18.367530   27.045570   24.540303
Pt   20.100169   24.877248   25.259655
Pt   20.832143   26.686234   23.182187
Pt   17.749775   25.233214   26.569367
Pt   19.376962   23.058944   27.346037
Pt   19.785772   27.147615   26.963466
Pt   24.751835   26.916690   9.483916
Pt   22.266374   27.351830   10.815116
Pt   21.933751   29.588886   12.546812
Pt   23.662578   27.461924   13.278840
Pt   24.380232   29.174713   11.148131
Pt   21.211494   27.858839   14.666369
Pt   20.899586   30.105122   16.445880
Pt   22.634089   27.934552   17.189822
Pt   27.269280   29.410337   16.136874
Pt   20.149936   28.355552   18.600215
Pt   19.821260   30.546024   20.349920
Pt   21.564490   28.448910   21.069749
Pt   22.300095   30.199873   18.934317
Pt   19.101744   28.810842   22.451849
Pt   20.518941   28.908883   24.902841
Pt   21.238127   30.646937   22.816970
Pt   24.074256   31.303503   12.914469
Pt   23.358365   29.692310   15.031010
Pt   25.513176   31.556207   15.333821
Pt   23.081447   31.935219   16.750190
Pt   27.640293   33.133134   15.775312
Pt   20.524323   32.265135   18.241643
Pt   21.956982   32.363928   20.705643
Pt   22.688069   34.012873   18.533008
Pt   21.222790   33.756833   16.135627
Pt   23.513090   11.840648   17.389853
Pt   27.026568   13.645950   20.159580
Pt   23.195398   13.945475   19.073949
Pt   24.882537   11.938612   19.788032
Pt   25.706805   13.468546   17.667212
Pt   22.496020   12.311018   21.126948
Pt   20.662421   14.254745   20.502617
Pt   24.630440   13.964872   21.619293
Pt   25.660289   16.897959   11.147515
Pt   24.948125   15.149987   13.160550
Pt   24.648530   17.292581   14.801058
Pt   24.231088   13.447406   15.260269
Pt   27.136752   16.887606   13.460189
Pt   23.925592   15.577706   16.911708
Pt   23.583145   17.793406   18.703819
Pt   25.370381   15.674411   19.450150
Pt   26.099160   17.379708   17.286882
Pt   22.842077   16.063884   20.874059
Pt   22.514084   18.251484   22.605852
Pt   24.279389   16.140375   23.357493
Pt   25.016508   17.860982   21.234094
Pt   21.820600   16.581320   24.627852
Pt   21.498496   18.781744   26.337221
Pt   23.952656   18.332164   25.079103
Pt   23.961329   18.967382   10.272273
Pt   24.322140   22.955862   9.923098
Pt   27.813546   18.661141   11.444936
Pt   28.248621   22.649388   10.895376
Pt   25.367496   19.060553   12.710542
Pt   25.029287   21.300030   14.454033
Pt   26.824458   19.129506   15.169865
Pt   27.515367   20.920255   13.044334
Pt   24.313709   19.528701   16.568016
Pt   23.983349   21.770705   18.320944
Pt   26.469621   21.389051   16.925100
Pt   27.184165   23.154666   14.794358
Pt   23.251444   20.009792   20.458930
Pt   22.926791   22.247192   22.195576
Pt   24.687095   20.079271   22.973973
Pt   25.408272   21.867242   20.810944
Pt   22.191705   20.461703   24.322774
Pt   21.875754   22.680793   26.017281
Pt   23.634541   20.541996   26.780111
Pt   24.365253   22.314482   24.694736
Pt   21.183355   20.993109   28.026584
Pt   20.896292   23.230672   29.623519
Pt   23.340297   22.766012   28.466769
Pt   30.233301   24.596471   11.332054
Pt   26.555179   24.833213   10.140774
Pt   29.714983   22.759555   13.339659
Pt   25.799371   23.042230   12.291381
Pt   25.428353   25.293582   14.061344
Pt   27.905717   24.899637   12.648824
Pt   27.960064   31.106033   13.987862
Pt   24.705766   23.540710   16.191426
Pt   24.386867   25.788435   17.933773
Pt   26.146765   23.644681   18.666364
Pt   26.869023   25.421875   16.535800
Pt   23.659077   24.019858   20.065183
Pt   23.337069   26.276427   21.798747
Pt   25.081057   24.122066   22.543889
Pt   25.818649   25.895774   20.408904
Pt   22.607841   24.497629   23.910153
Pt   22.289843   26.778300   25.624269
Pt   24.066069   24.585046   26.382251
Pt   24.779477   26.395498   24.296714
Pt   21.585410   24.950881   27.635625
Pt   21.281581   27.099162   29.267481
Pt   22.964671   25.026634   29.975281
Pt   23.749888   26.854562   28.087320
Pt   19.214053   25.303981   28.913879
Pt   26.158032   27.045591   11.926914
Pt   25.832969   29.277453   13.659729
Pt   26.819647   28.748152   9.944610
Pt   25.103019   27.532037   15.797740
Pt   24.802571   29.799597   17.515399
Pt   26.567754   27.669611   18.267660
Pt   29.329422   25.014482   15.131446
Pt   24.067560   28.037171   19.663658
Pt   23.735815   30.276705   21.424994
Pt   25.504484   28.153733   22.179273
Pt   26.237862   29.885034   20.033559
Pt   23.009409   28.533883   23.539657
Pt   22.686149   30.637350   25.226511
Pt   24.445929   28.616858   26.018000
Pt   25.163653   30.347366   23.933963
Pt   21.973430   28.896659   27.290164
Pt   29.322968   31.154899   16.393933
Pt   25.292520   33.666575   17.180125
Pt   27.027373   31.616771   17.923519
Pt   24.470824   32.009431   19.281260
Pt   24.111597   34.036162   21.082343
Pt   25.900054   32.053255   21.836827
Pt   26.602975   33.689531   19.734494
Pt   23.400494   32.347455   23.151010
Pt   24.826011   35.516017   19.016380
Pt   27.834798   15.266697   18.041233
Pt   29.942371   17.089221   18.389472
Pt   26.410909   15.167817   15.550959
Pt   25.735831   19.628634   19.058972
Pt   27.490756   17.485939   19.799653
Pt   28.234528   19.225849   17.636039
Pt   26.764636   15.759906   21.957250
Pt   26.418770   17.960356   23.704454
Pt   28.872275   17.580904   22.304466
Pt   29.869371   20.490257   11.809510
Pt   29.272904   18.739694   13.811766
Pt   28.958082   21.019956   15.504268
Pt   30.671004   18.850930   16.255112
Pt   32.688965   20.743984   16.654365
Pt   28.549541   16.995638   15.922166
Pt   27.875588   21.495033   19.402900
Pt   29.595264   19.324425   20.142062
Pt   30.343122   21.121481   17.959645
Pt   27.144199   19.697551   21.582309
Pt   26.814780   21.941609   23.325019
Pt   28.525147   19.801387   24.053849
Pt   29.233106   21.559369   21.927630
Pt   26.092711   20.178546   25.428943
Pt   25.787716   22.415322   27.136847
Pt   28.215392   22.044531   25.779594
Pt   28.309992   28.931617   12.254882
Pt   28.579752   26.698785   10.605104
Pt   31.137839   22.909364   15.822089
Pt   28.634748   23.276415   17.246531
Pt   28.314898   25.540749   18.977428
Pt   30.006558   23.410629   19.691023
Pt   30.808983   25.169934   17.568235
Pt   27.544604   23.746532   21.146456
Pt   27.234844   26.019110   22.919668
Pt   28.931382   23.841860   23.661251
Pt   29.675382   25.637998   21.494513
Pt   26.502892   24.215225   25.033795
Pt   26.193703   26.467190   26.756425
Pt   27.842314   24.297812   27.393537
Pt   28.621371   26.093317   25.397128
Pt   25.411381   24.666643   28.737729
Pt   29.699831   29.008591   14.716074
Pt   26.152310   20.743638   10.542032
Pt   26.480531   30.888294   11.598706
Pt   29.083578   27.320630   16.884882
Pt   28.779322   29.527630   18.637401
Pt   30.453538   27.372402   19.378004
Pt   27.623308   27.170617   14.399779
Pt   27.973501   27.769260   20.756879
Pt   27.643183   29.957574   22.552940
Pt   29.356484   27.851811   23.272556
Pt   30.030713   29.504311   21.142367
Pt   26.904194   28.228419   24.658125
Pt   28.317682   31.600986   20.447506
Pt   31.237008   17.285866   20.855099
Pt   31.622325   24.710609   13.693686
Pt   32.036754   18.940130   18.713879
Pt   31.640823   21.228566   20.464064
Pt   33.242443   19.166778   21.172078
Pt   32.459875   23.002682   18.326832
Pt   30.959645   19.435430   22.652771
Pt   32.601061   23.542637   24.591835
Pt   32.979391   21.347438   22.901221
Pt   31.327832   26.844167   15.372772
Pt   30.040332   26.818882   12.955949
Pt   33.699967   23.052930   20.834391
Pt   30.632083   21.660146   24.389791
Pt   31.046971   25.727036   24.010315
Pt   31.315111   23.459387   22.209473
Pt   32.136380   25.234098   20.076008
Pt   30.261718   23.922339   26.025619
Pt   31.313442   20.617395   14.205233
Pt   31.724605   27.387313   21.849318
Pt   33.322139   25.238980   22.540781
Pt   33.957570   20.860441   19.114198
