309
Generated with con2xyz
Pt   21.188285   15.001094   10.693013
Pt   19.252296   15.135835   12.687395
Pt   20.007772   15.936887   15.340579
Pt   20.757816   16.735197   18.004646
Pt   21.524475   17.550775   20.681582
Pt   22.292717   18.369082   23.339225
Pt   25.710288   19.822693   26.520377
Pt   22.710074   13.225524   12.270268
Pt   21.961959   15.793185   13.250626
Pt   22.709325   16.601862   15.922032
Pt   23.460011   17.398967   18.595443
Pt   24.232755   18.225093   21.267026
Pt   25.010299   19.041835   23.939337
Pt   24.536838   17.446657   27.592025
Pt   19.189599   17.027302   10.643417
Pt   19.936281   17.843291   13.199096
Pt   20.701163   18.633020   15.872864
Pt   21.448716   19.433968   18.552790
Pt   22.223646   20.259741   21.228230
Pt   22.985030   21.094758   23.898037
Pt   16.771176   15.905338   11.663938
Pt   17.469503   16.701262   14.233464
Pt   18.247098   17.504479   16.906407
Pt   19.006518   18.318269   19.597498
Pt   19.782380   19.137908   22.283479
Pt   20.533012   19.961085   24.960727
Pt   21.301331   20.726290   27.520107
Pt   18.542758   14.381094   10.197516
Pt   17.983582   13.938886   14.923462
Pt   18.756685   14.756673   17.592134
Pt   19.521914   15.569603   20.285698
Pt   20.296122   16.393215   22.973205
Pt   21.050461   17.199956   25.652597
Pt   23.051636   19.180785   25.991675
Pt   20.005046   12.622775   11.741298
Pt   20.758362   13.369604   14.312129
Pt   21.521638   14.195503   16.983553
Pt   22.286681   15.002959   19.669783
Pt   23.054213   15.827495   22.351909
Pt   23.821037   16.629550   25.031430
Pt   21.811336   18.008519   28.200497
Pt   23.877231   15.645222   11.291037
Pt   24.657297   16.458162   13.849566
Pt   25.405104   17.278633   16.522422
Pt   26.150399   18.066995   19.172501
Pt   26.935758   18.885935   21.864507
Pt   27.635006   19.666678   24.451626
Pt   21.886999   17.701078   11.160460
Pt   22.674223   18.525914   13.768692
Pt   23.424931   19.315771   16.461524
Pt   24.161777   20.113243   19.121353
Pt   24.950759   20.962317   21.819132
Pt   23.713780   21.845279   26.477490
Pt   19.852068   19.722543   11.193267
Pt   20.613699   20.534079   13.752858
Pt   21.390993   21.318902   16.442654
Pt   22.140027   22.125055   19.097733
Pt   25.604660   23.651415   22.325215
Pt   17.401089   18.612029   12.143355
Pt   18.145740   19.414813   14.754701
Pt   18.931274   20.200643   17.450543
Pt   19.705760   21.025654   20.168113
Pt   20.459586   21.877341   22.857415
Pt   21.212719   22.666204   25.473129
Pt   15.017328   17.478390   13.251272
Pt   15.719691   18.273468   15.821271
Pt   16.499546   19.079667   18.500446
Pt   17.270221   19.899094   21.199577
Pt   18.023159   20.721898   23.883271
Pt   18.788555   21.486611   26.445980
Pt   15.464884   14.722456   13.870613
Pt   16.197018   15.512827   16.488411
Pt   17.001838   16.332328   19.172998
Pt   17.782189   17.160372   21.899621
Pt   18.518855   17.977961   24.606135
Pt   19.279621   18.774508   27.215359
Pt   17.279447   13.189084   12.343298
Pt   16.744589   12.773356   17.193892
Pt   17.522016   13.596399   19.871058
Pt   18.294238   14.417029   22.572599
Pt   19.050910   15.223822   25.260197
Pt   19.810267   16.027992   27.812228
Pt   18.750155   11.388656   13.947795
Pt   19.495434   12.169072   16.564995
Pt   20.271963   13.020855   19.247474
Pt   21.050111   13.849617   21.972833
Pt   21.813652   14.636038   24.679762
Pt   22.563635   15.445455   27.288635
Pt   21.510072   10.882540   13.403137
Pt   22.262352   11.633815   15.973515
Pt   23.029783   12.464280   18.650695
Pt   23.798851   13.282773   21.345848
Pt   24.564252   14.085609   24.033783
Pt   25.280564   14.898951   26.596624
Pt   24.214318   11.474779   13.925138
Pt   23.478217   14.021794   14.881365
Pt   24.231067   14.857819   17.570909
Pt   24.999946   15.677239   20.276055
Pt   25.787426   16.482518   22.970449
Pt   26.518586   17.286954   25.591207
Pt   28.102122   14.507351   13.468085
Pt   27.350577   17.105016   14.483205
Pt   28.135951   17.956973   17.095101
Pt   29.475980   21.361033   20.311487
Pt   29.562335   19.514766   22.386022
Pt   24.587833   18.338311   11.743070
Pt   25.411213   19.232291   14.367571
Pt   26.156427   20.030744   17.026737
Pt   23.631956   23.727500   24.360421
Pt   27.626715   21.596617   22.376642
Pt   22.534142   20.416079   11.692182
Pt   23.362962   21.238416   14.350377
Pt   24.144996   22.057441   16.991678
Pt   26.805228   22.700857   17.629527
Pt   23.765696   19.942097   28.478985
Pt   20.522711   22.427336   11.752083
Pt   21.296253   23.227469   14.358812
Pt   22.121235   24.045685   16.964909
Pt   22.905657   22.972967   21.779875
Pt   18.076917   21.311427   12.691939
Pt   18.820405   22.105997   15.317314
Pt   19.635816   22.877193   18.028843
Pt   20.372997   23.751967   20.737372
Pt   21.137100   24.552522   23.358755
Pt   15.639606   20.185159   13.726137
Pt   16.396334   20.991990   16.343941
Pt   17.208548   21.762609   19.065891
Pt   17.950710   22.641673   21.777410
Pt   18.695946   23.428863   24.407385
Pt   13.272594   19.058567   14.850387
Pt   13.895320   21.764757   15.315044
Pt   14.738817   20.671871   20.106409
Pt   11.886984   20.984096   23.874112
Pt   16.276216   22.246135   25.356025
Pt   13.707801   16.302255   15.450787
Pt   14.452281   17.085308   18.081245
Pt   15.293785   17.915215   20.782194
Pt   16.009431   18.736429   23.522404
Pt   16.765797   19.546280   26.143131
Pt   14.222431   13.546060   16.137147
Pt   14.962200   14.351894   18.763374
Pt   15.802759   15.186484   21.465176
Pt   16.518879   16.004741   24.206247
Pt   17.280034   16.792486   26.831937
Pt   14.802559   10.855415   16.896951
Pt   15.515689   11.616514   19.498799
Pt   16.274824   12.425054   22.169065
Pt   14.987564   11.212407   24.432703
Pt   17.804257   14.049208   27.407188
Pt   16.036836   12.018683   14.613129
Pt   18.260730   11.005634   18.839846
Pt   19.049059   11.893250   21.538173
Pt   19.815505   12.659242   24.280499
Pt   20.555094   13.467264   26.905727
Pt   20.262416   9.644291   15.605413
Pt   21.000262   10.437837   18.234931
Pt   21.785633   11.326738   20.932175
Pt   22.553322   12.091527   23.672902
Pt   23.315337   12.895663   26.293478
Pt   23.019498   9.149410   15.077031
Pt   23.772806   9.902457   17.667926
Pt   24.537652   10.711197   20.337847
Pt   25.296530   11.527193   23.007725
Pt   26.019559   12.349192   25.587807
Pt   25.720952   9.739897   15.590272
Pt   24.979845   12.283586   16.540000
Pt   25.715497   13.148379   19.257466
Pt   26.531324   13.939681   21.978233
Pt   27.265291   14.734805   24.609317
Pt   25.406330   13.872627   12.867767
Pt   26.182803   14.677255   15.489759
Pt   26.931934   15.533231   18.177518
Pt   27.720619   16.319083   20.885179
Pt   28.451746   17.136827   23.521816
Pt   30.351954   13.500790   17.838407
Pt   31.553272   16.199862   16.667361
Pt   28.840076   18.709277   19.755205
Pt   31.384360   19.331154   20.322357
Pt   30.009884   17.777096   15.024002
Pt   29.185870   16.879306   12.535158
Pt   28.800264   20.654742   17.677104
Pt   26.868051   20.795965   19.702344
Pt   25.178155   21.036977   12.273346
Pt   23.992315   23.928058   14.896070
Pt   25.435438   25.454816   20.206320
Pt   25.682544   21.748858   24.448641
Pt   23.148062   23.076104   12.328117
Pt   23.387773   27.389589   20.114248
Pt   23.548528   25.610626   22.236393
Pt   22.811846   24.824943   19.618768
Pt   21.158025   25.053644   12.404155
Pt   21.966028   25.927697   14.902328
Pt   20.229795   27.409478   16.489558
Pt   18.735784   24.011908   13.253893
Pt   19.533964   24.792148   15.934408
Pt   20.292178   25.588480   18.566680
Pt   24.862629   22.835157   19.655563
Pt   16.316594   22.904934   14.286086
Pt   13.032898   24.125608   19.548438
Pt   17.857938   24.504502   19.601597
Pt   18.610332   25.328108   22.275638
Pt   14.648857   24.398123   15.936010
Pt   14.691315   22.561535   17.992952
Pt   15.449785   23.364199   20.639658
Pt   16.189565   24.194340   23.325604
Pt   12.760753   18.675459   19.723301
Pt   12.184984   21.478321   19.067603
Pt   11.070114   20.177774   21.306565
Pt   20.976147   28.131988   19.082738
Pt   13.978485   19.860607   17.440201
Pt   13.518281   19.479315   22.371600
Pt   12.847488   15.586874   25.259820
Pt   13.788580   22.973833   24.215854
Pt   12.461665   15.128847   17.735864
Pt   13.242115   15.942623   20.410876
Pt   13.999788   16.748153   23.063438
Pt   14.750909   17.559356   25.745760
Pt   12.988702   12.383750   18.412363
Pt   13.777745   13.217649   21.086328
Pt   14.533672   14.022659   23.736248
Pt   11.509509   17.506484   21.988842
Pt   13.611626   9.733893   19.211217
Pt   14.245692   10.420233   21.831408
Pt   13.385906   12.917756   25.891212
Pt   15.277345   14.821149   26.431671
Pt   17.500712   10.218304   16.214359
Pt   17.053056   9.892907   21.161469
Pt   15.895718   8.753398   23.394192
Pt   15.815743   12.084317   26.940560
Pt   19.016413   8.469868   17.890285
Pt   19.783341   9.297882   20.561895
Pt   17.809878   10.699078   23.810514
Pt   21.301797   10.904085   25.897144
Pt   21.764771   7.909901   17.273581
Pt   22.519720   8.752849   19.951992
Pt   23.276123   9.558627   22.601474
Pt   24.052627   10.349237   25.291776
Pt   24.519794   7.465697   16.793704
Pt   23.950886   7.071519   21.612672
Pt   26.056510   8.908948   21.986471
Pt   28.629026   9.758996   22.513251
Pt   25.311662   8.114428   19.378590
Pt   27.219239   11.394029   20.925437
Pt   27.946444   8.913358   19.916822
Pt   28.007750   12.188402   23.610540
Pt   26.928122   12.123401   14.530785
Pt   29.831093   12.067714   21.497424
Pt   28.441136   13.769587   19.867431
Pt   29.207421   14.577585   22.531980
Pt   30.706803   15.241400   14.092603
Pt   28.911610   15.341251   16.124745
Pt   29.660791   16.151906   18.763242
Pt   30.377067   16.982762   21.457551
Pt   32.081054   13.704721   15.811137
Pt   26.053994   21.952373   14.942622
Pt   26.566481   16.258416   11.880825
Pt   27.267162   18.907828   12.341939
Pt   28.104051   19.848347   14.999409
Pt   27.468187   23.414350   20.271206
Pt   27.705580   21.456711   12.922595
Pt   24.778298   24.717094   17.563516
Pt   19.484269   26.573450   13.927770
Pt   21.039266   26.433615   21.244319
Pt   17.790587   26.384522   17.499723
Pt   12.313817   23.262634   16.971677
Pt   22.724437   26.714412   17.514530
Pt   18.569519   27.095988   20.117721
Pt   17.068364   25.521035   14.911720
Pt   17.098469   23.702799   16.956227
Pt   16.149727   25.980199   21.159749
Pt   11.578197   20.631201   16.490139
Pt   13.800836   24.834729   22.158255
Pt   15.370071   25.270241   18.531403
Pt   11.964144   17.875691   17.043435
Pt   12.015543   14.787498   22.667054
Pt   15.503403   21.478818   22.773410
Pt   10.844806   16.727607   19.342575
Pt   10.402452   19.410574   18.685123
Pt   14.257673   20.305884   25.059685
Pt   11.354857   13.995208   20.022458
Pt   12.929207   22.267097   21.667607
Pt   12.340275   18.316385   24.578465
Pt   11.906820   11.338929   20.697925
Pt   12.567406   12.131837   23.316281
Pt   17.039671   13.238634   24.835714
Pt   16.268320   9.055233   18.489646
Pt   15.153830   8.041740   20.775389
Pt   16.634670   9.621656   25.965652
Pt   17.814435   7.431546   20.175159
Pt   19.306988   9.023003   25.409175
Pt   18.557485   11.491935   26.506867
Pt   20.545942   6.860034   19.570112
Pt   21.277339   7.574397   22.217569
Pt   20.541426   10.104074   23.214597
Pt   18.555318   8.143573   22.819169
Pt   22.040786   8.452654   24.806585
Pt   26.725290   9.820389   24.525734
Pt   26.462256   10.583484   18.270660
Pt   27.148035   8.170971   17.322503
Pt   24.712063   7.936897   24.182906
Pt   28.341876   10.458860   16.259491
Pt   23.228889   6.355103   18.986281
Pt   29.141472   11.181259   18.887042
Pt   29.582498   12.816371   15.158023
Pt   31.079794   14.457006   20.451344
Pt   27.679036   12.949098   17.186393
Pt   32.788754   14.494275   18.332983
Pt   30.756882   18.634756   17.716462
Pt   32.193409   16.903461   19.370197
