309
Generated with con2xyz
Pt   23.706987   18.366308   11.363046
Pt   24.558694   21.089752   11.344488
Pt   27.920432   15.653432   24.756947
Pt   25.785790   27.212061   24.242576
Pt   19.999625   14.719859   22.743195
Pt   22.628284   14.856389   25.805292
Pt   21.026854   20.832684   26.903292
Pt   18.465882   12.788917   24.097340
Pt   16.895497   29.303545   19.059416
Pt   22.373502   20.257680   9.868906
Pt   22.838169   18.746721   22.797149
Pt   19.384146   30.912280   16.367343
Pt   23.867815   26.305613   19.653629
Pt   19.201066   26.228947   19.352169
Pt   24.412101   12.704921   21.654017
Pt   26.354530   14.543653   14.593868
Pt   26.250063   24.662360   19.942511
Pt   16.851999   17.106902   13.697871
Pt   22.091110   25.210175   12.431039
Pt   23.527826   31.084696   22.408053
Pt   17.050720   22.000581   17.864452
Pt   19.109804   23.838917   20.890084
Pt   22.163179   20.355413   12.559710
Pt   19.256971   21.324858   19.521599
Pt   16.825399   22.099568   20.758866
Pt   12.679718   23.326215   14.722156
Pt   12.091727   23.546070   20.302068
Pt   18.790141   21.506457   25.295548
Pt   18.604548   21.581494   28.072721
Pt   18.153988   19.152930   15.118650
Pt   25.940432   19.185557   12.882722
Pt   23.324645   14.534046   17.142748
Pt   18.890966   16.569665   18.205763
Pt   20.191612   18.608636   19.687970
Pt   17.256696   19.541638   26.654124
Pt   19.512510   18.897048   28.229293
Pt   19.326447   16.393108   12.538166
Pt   23.288375   18.556066   17.027091
Pt   27.075463   17.380797   17.326677
Pt   13.315699   20.715871   17.630706
Pt   21.261116   20.752170   24.034361
Pt   23.468222   21.584284   25.655967
Pt   23.308636   24.077196   27.001707
Pt   24.846378   16.532407   15.756289
Pt   29.574809   21.109464   24.641206
Pt   21.111560   30.432345   23.589268
Pt   25.744712   24.813944   25.728884
Pt   27.737180   20.272147   20.222038
Pt   25.278568   19.497359   21.517617
Pt   30.134705   20.978438   18.951895
Pt   24.394965   16.730549   21.532634
Pt   22.196157   16.382574   12.684733
Pt   25.502218   19.405099   18.619760
Pt   28.317623   27.814564   20.123258
Pt   26.796359   17.493369   20.233402
Pt   21.937174   20.461152   15.425463
Pt   21.354460   30.495569   20.818061
Pt   19.034588   21.421822   22.406856
Pt   21.486773   20.658753   21.172681
Pt   23.364667   26.474521   25.512337
Pt   20.879364   23.294562   28.204074
Pt   17.268093   21.888567   14.960570
Pt   19.703505   21.120752   13.743223
Pt   16.757679   31.668573   20.353958
Pt   26.577503   22.053752   15.751037
Pt   16.421062   24.675611   25.002105
Pt   18.644637   24.004565   26.632858
Pt   19.486317   21.223714   16.635480
Pt   17.114389   24.402663   16.280385
Pt   12.016286   23.603463   23.069989
Pt   11.239558   21.363498   16.053009
Pt   14.667856   25.151764   17.544449
Pt   16.392843   22.255343   26.435985
Pt   17.724349   19.358283   20.931296
Pt   19.509739   28.511416   14.928523
Pt   14.418031   17.892182   14.894805
Pt   15.262381   20.126466   22.196797
Pt   17.952791   19.258864   18.024562
Pt   16.077376   12.539574   18.148947
Pt   14.797435   27.551753   16.014725
Pt   15.028107   15.200671   17.958235
Pt   23.247116   10.750784   17.290941
Pt   19.715692   18.779063   25.455086
Pt   24.456122   9.152525   21.852948
Pt   19.746856   14.830654   25.580244
Pt   10.792301   21.549131   21.665474
Pt   20.864672   18.327574   11.144305
Pt   23.927915   21.407522   19.894160
Pt   26.351020   17.648731   26.021838
Pt   25.476538   14.936266   25.944793
Pt   22.355094   18.937384   28.457595
Pt   31.535678   18.988479   17.657619
Pt   20.627714   18.392658   13.917122
Pt   12.695623   16.148469   19.177950
Pt   18.705254   12.715405   21.203589
Pt   21.024758   28.083587   25.172259
Pt   20.809773   20.916146   29.594042
Pt   28.607371   23.027291   20.195045
Pt   20.414442   18.508694   16.801555
Pt   31.384824   19.061405   20.587786
Pt   26.163521   14.623815   17.411308
Pt   23.611297   26.382513   22.665883
Pt   23.204249   21.658165   28.432003
Pt   25.971278   10.795488   20.460897
Pt   24.695184   12.562771   18.748838
Pt   25.993837   24.730577   22.860927
Pt   28.125696   15.568247   21.851338
Pt   26.325778   27.128887   18.375351
Pt   21.561375   12.694535   21.438056
Pt   19.790227   23.523383   12.235814
Pt   21.882895   25.350699   15.210725
Pt   23.677988   28.734299   21.079515
Pt   21.561468   23.054022   19.653059
Pt   26.433679   26.860293   15.541456
Pt   21.104387   23.248022   25.426672
Pt   28.687783   25.228351   15.847919
Pt   21.637892   30.361247   17.966809
Pt   21.263868   28.031525   22.370879
Pt   16.647630   24.600438   22.166113
Pt   21.750475   30.093543   15.208496
Pt   25.817188   29.513244   22.665325
Pt   20.949581   25.686913   26.699213
Pt   28.420348   25.488093   21.556027
Pt   18.412985   16.745515   23.969333
Pt   21.751881   27.829376   16.619439
Pt   23.693882   21.503604   22.757891
Pt   18.863054   23.932443   23.806105
Pt   21.789073   22.955428   16.757170
Pt   15.079962   22.555518   13.426347
Pt   18.391668   19.062496   12.295503
Pt   14.719678   29.945393   17.463473
Pt   14.367701   22.853369   21.982913
Pt   14.588545   22.785863   19.099387
Pt   14.493465   30.037088   20.244729
Pt   12.565730   25.835247   15.989364
Pt   19.960708   18.702455   22.573819
Pt   17.557151   14.531053   16.754524
Pt   20.654383   14.450840   14.059815
Pt   12.290645   28.332517   20.121669
Pt   19.654752   26.019594   13.568877
Pt   15.040687   20.229122   25.030355
Pt   23.516830   18.438545   14.142763
Pt   12.113910   26.021340   21.635059
Pt   23.098789   10.676161   20.137671
Pt   10.943938   21.428641   18.854363
Pt   25.055859   19.569442   24.428725
Pt   19.096424   16.457058   15.313230
Pt   16.410591   17.273547   19.434383
Pt   19.332028   23.734476   17.981731
Pt   13.733424   18.182889   23.550478
Pt   24.616771   16.646991   18.649334
Pt   21.791917   12.623564   18.579484
Pt   21.542007   16.686036   21.322536
Pt   18.931407   12.623363   18.354180
Pt   25.944182   14.666692   20.263039
Pt   15.952249   19.843590   13.499255
Pt   19.149079   12.503140   15.458979
Pt   14.208077   25.348669   23.349414
Pt   20.476449   10.687672   17.130276
Pt   20.016014   10.873492   22.780066
Pt   28.140590   20.043756   14.470678
Pt   16.892989   14.832857   25.238675
Pt   27.232794   20.421144   25.984279
Pt   25.737274   10.967461   23.292610
Pt   17.782083   14.456608   13.952070
Pt   21.293811   16.753239   24.224641
Pt   20.460194   14.528093   16.903049
Pt   25.893578   22.324663   24.348542
Pt   15.946834   17.489955   25.164730
Pt   24.447301   23.600912   12.610086
Pt   29.792123   13.546171   17.774690
Pt   25.628972   22.402025   27.143213
Pt   29.397196   13.782130   23.392718
Pt   30.240862   16.434549   23.428673
Pt   25.716441   14.793161   23.139683
Pt   28.011845   23.132713   25.802250
Pt   22.857209   14.733707   22.958014
Pt   23.114336   14.665381   20.038290
Pt   32.656375   17.179494   19.217530
Pt   26.379915   22.157937   18.619332
Pt   27.262682   17.268783   14.476710
Pt   28.067186   27.865852   22.877888
Pt   28.825451   22.935372   17.370114
Pt   26.159940   22.261038   21.472791
Pt   28.571745   25.452453   18.676697
Pt   28.069268   25.552635   24.379497
Pt   28.898252   22.775893   14.589969
Pt   19.320408   28.627032   17.801353
Pt   12.227148   25.938736   18.802372
Pt   18.888050   31.100266   22.007103
Pt   18.817071   28.810992   23.603745
Pt   26.751247   21.931355   12.947562
Pt   28.381239   23.095845   23.061749
Pt   24.297381   26.108657   13.939095
Pt   17.086039   29.262513   16.142086
Pt   18.728161   26.412003   25.132034
Pt   18.957513   26.328872   22.291119
Pt   21.343021   23.159163   22.528687
Pt   24.144849   21.306796   17.011211
Pt   19.080306   28.722369   20.730914
Pt   14.607573   27.595047   18.936411
Pt   21.178956   25.637454   23.918871
Pt   23.999677   28.766954   18.141341
Pt   16.896835   24.504277   19.225764
Pt   17.521487   21.778653   12.189991
Pt   16.520076   27.072438   23.504407
Pt   19.557766   23.640146   15.061193
Pt   17.454064   10.725967   19.734237
Pt   20.237453   14.677302   19.828104
Pt   14.432737   25.249611   20.482374
Pt   12.318037   23.452584   17.465618
Pt   21.941711   27.709126   13.786406
Pt   29.000303   18.308149   21.829945
Pt   12.828240   20.906666   23.381951
Pt   16.611342   29.456907   21.969007
Pt   18.663953   16.667775   21.081285
Pt   11.631651   18.897135   21.842307
Pt   17.466453   19.444051   23.829204
Pt   14.214441   18.002551   17.797297
Pt   13.989110   18.097336   20.650507
Pt   11.770659   18.774041   19.013283
Pt   12.549097   16.271240   21.997316
Pt   15.726946   12.826132   23.714851
Pt   12.513613   28.242245   17.353686
Pt   17.686783   10.700611   16.939788
Pt   16.608251   17.197476   16.539187
Pt   12.993094   16.083642   16.368662
Pt   23.543262   14.467375   14.294408
Pt   14.802267   15.292875   20.809801
Pt   15.726056   19.929721   16.334751
Pt   15.340468   15.180534   15.147703
Pt   27.341881   12.760839   21.874729
Pt   24.194350   12.866440   24.560525
Pt   22.004426   12.529685   15.659519
Pt   23.066593   18.654922   19.915121
Pt   21.767200   16.588968   18.414445
Pt   24.868150   12.583582   15.929587
Pt   25.747965   19.285483   15.716494
Pt   21.314100   12.816707   24.330277
Pt   21.714399   20.563508   18.293246
Pt   21.984637   16.461386   15.512665
Pt   29.284158   18.203836   18.967060
Pt   17.108416   14.721805   22.435643
Pt   18.205951   16.865414   26.743039
Pt   22.855741   10.872292   23.074254
Pt   30.726275   16.199075   17.685199
Pt   28.590426   15.364661   16.083128
Pt   17.216546   26.778295   14.775225
Pt   26.598806   17.563984   23.176480
Pt   29.457859   18.121389   16.055902
Pt   26.421595   24.565337   17.098559
Pt   19.960021   21.010581   10.973288
Pt   26.649447   24.443596   14.192737
Pt   24.159128   16.812481   24.428098
Pt   21.431362   25.553617   20.994814
Pt   23.995153   23.793237   18.361635
Pt   25.033918   16.462329   12.972250
Pt   21.636833   25.432500   18.122559
Pt   24.241622   23.727484   15.446349
Pt   30.232732   20.862636   16.106593
Pt   23.553638   24.004619   24.170409
Pt   24.804233   19.662429   27.258448
Pt   19.426668   26.129576   16.407364
Pt   22.603854   18.820427   25.683832
Pt   24.382076   21.206358   14.127178
Pt   14.898620   25.059430   14.677382
Pt   21.530516   27.974950   19.454607
Pt   23.790310   31.030919   19.658518
Pt   14.328532   27.745151   21.848972
Pt   26.078107   29.471500   19.893575
Pt   24.097551   26.221913   16.823554
Pt   16.150695   17.390916   22.321174
Pt   26.001620   27.091150   21.318106
Pt   22.022080   22.863385   13.867347
Pt   12.078534   18.709142   16.195808
Pt   17.008110   26.870182   17.625306
Pt   27.678664   12.755548   16.251173
Pt   23.444210   28.863021   23.997693
Pt   16.985087   31.574566   17.592873
Pt   17.340696   24.288205   13.444961
Pt   14.671963   15.465395   23.630078
Pt   14.823798   22.660798   16.216695
Pt   21.059990   16.861680   27.051590
Pt   17.292878   14.614613   19.592804
Pt   16.580289   22.179137   23.659518
Pt   22.239125   22.724219   11.090697
Pt   14.180223   22.934751   24.778818
Pt   15.854836   12.632691   20.961107
Pt   16.764114   26.971819   20.657814
Pt   16.386075   12.546149   15.402563
Pt   13.515167   20.616424   14.727916
Pt   13.088552   20.810652   20.485761
Pt   15.556581   20.052855   19.271433
Pt   29.906821   21.075640   21.823453
Pt   27.053475   12.996240   24.647163
Pt   20.243830   10.693947   19.955291
Pt   17.239896   10.885220   22.529220
Pt   27.949540   20.139418   17.347618
Pt   23.787430   23.918247   21.240817
Pt   28.367682   15.474434   18.991680
Pt   23.910467   16.935282   27.206841
Pt   27.486122   20.330702   23.114094
Pt   28.771774   18.398082   24.753040
Pt   31.023628   19.129801   23.395468
Pt   24.089827   28.513404   15.307372
Pt   29.652813   13.622074   20.584447
Pt   27.532864   12.676588   19.033828
Pt   30.587211   16.266794   20.617636
Pt   19.173901   31.115824   19.169321
