309
Generated with con2xyz
Pt   21.166281   14.884865   10.679579
Pt   19.240249   15.061340   12.683180
Pt   20.019386   15.866925   15.329844
Pt   20.798616   16.670852   17.989366
Pt   21.583435   17.485453   20.659407
Pt   22.366805   18.300523   23.311374
Pt   25.803222   19.703601   26.488229
Pt   22.661642   13.091853   12.260152
Pt   21.957848   15.680717   13.230523
Pt   22.729355   16.500696   15.900102
Pt   23.517715   17.309054   18.576814
Pt   24.307302   18.128093   21.237792
Pt   25.097271   18.936536   23.899431
Pt   24.595885   17.352925   27.569344
Pt   19.206242   16.943267   10.630622
Pt   19.973029   17.763107   13.181211
Pt   20.758505   18.558818   15.849536
Pt   21.538269   19.364669   18.522576
Pt   22.328894   20.184125   21.189073
Pt   23.098563   21.014355   23.856018
Pt   16.768301   15.860621   11.663994
Pt   17.490124   16.658901   14.228284
Pt   18.291356   17.464695   16.896238
Pt   19.074417   18.280808   19.578823
Pt   19.866161   19.098125   22.258682
Pt   20.629741   19.918077   24.931900
Pt   21.408657   20.679207   27.489857
Pt   18.509696   14.304757   10.197745
Pt   17.962613   13.893418   14.931043
Pt   18.758945   14.715826   17.593399
Pt   19.545566   15.529847   20.278734
Pt   20.337608   16.351422   22.959931
Pt   21.108801   17.155247   25.633831
Pt   23.139553   19.107649   25.959536
Pt   19.946877   12.529170   11.744541
Pt   20.717442   13.277023   14.308833
Pt   21.499457   14.107413   16.974816
Pt   22.292110   14.921154   19.657917
Pt   23.081198   15.744459   22.335741
Pt   23.867160   16.542544   25.009473
Pt   21.883768   17.960074   28.177707
Pt   23.867730   15.478199   11.263629
Pt   24.656338   16.290059   13.817278
Pt   25.426920   17.132028   16.506611
Pt   26.238930   17.960830   19.156007
Pt   27.032010   18.760349   21.815633
Pt   27.728740   19.495907   24.426346
Pt   21.914507   17.577812   11.134147
Pt   22.714638   18.412908   13.736634
Pt   23.485548   19.220679   16.428705
Pt   24.283673   20.018814   19.086716
Pt   25.071850   20.851194   21.763023
Pt   23.828452   21.762178   26.443588
Pt   19.925841   19.630531   11.168679
Pt   20.712242   20.452285   13.719274
Pt   21.508083   21.243111   16.390265
Pt   22.275869   22.040790   19.047125
Pt   25.725099   23.533833   22.304160
Pt   17.448655   18.556302   12.126713
Pt   18.217008   19.362821   14.733526
Pt   19.026185   20.152938   17.424403
Pt   19.818177   20.977613   20.135221
Pt   20.581523   21.825815   22.820549
Pt   21.340790   22.612820   25.434740
Pt   15.045717   17.461914   13.247949
Pt   15.771287   18.259448   15.813191
Pt   16.573033   19.068316   18.486700
Pt   17.362192   19.887595   21.178224
Pt   18.128363   20.708935   23.856310
Pt   18.905575   21.472728   26.415026
Pt   15.453400   14.706489   13.883567
Pt   16.208290   15.498417   16.495255
Pt   17.034255   16.320676   19.173370
Pt   17.832485   17.148441   21.891037
Pt   18.585106   17.964102   24.591011
Pt   19.360603   18.759642   27.195214
Pt   17.236854   13.140625   12.356963
Pt   16.716315   12.754685   17.212888
Pt   17.514942   13.579512   19.882062
Pt   18.307084   14.400373   22.574689
Pt   19.081781   15.205438   25.256010
Pt   19.856708   16.008327   27.802348
Pt   18.682812   11.323706   13.963913
Pt   19.449816   12.106198   16.575697
Pt   20.248617   12.961256   19.252224
Pt   21.049297   13.790598   21.969441
Pt   21.833230   14.575746   24.670084
Pt   22.598301   15.381981   27.274306
Pt   21.432864   10.774686   13.408438
Pt   22.203315   11.526334   15.973074
Pt   22.987378   12.359518   18.644785
Pt   23.782452   13.183653   21.335064
Pt   24.573221   13.983969   24.014047
Pt   25.304966   14.790659   26.574892
Pt   24.148004   11.329414   13.919770
Pt   23.439198   13.888501   14.865963
Pt   24.205152   14.732557   17.553726
Pt   25.010794   15.566576   20.261489
Pt   25.824346   16.364476   22.945539
Pt   26.570362   17.151414   25.567167
Pt   28.079929   14.285618   13.441051
Pt   27.355445   16.896670   14.454926
Pt   28.165836   17.774933   17.057114
Pt   29.512184   22.885623   18.397111
Pt   29.668880   19.232752   22.398349
Pt   24.631230   18.152453   11.696722
Pt   25.427791   19.028781   14.346865
Pt   26.223623   19.874814   16.987046
Pt   23.760528   23.641879   24.323853
Pt   27.715861   21.437041   22.394554
Pt   22.625901   20.281061   11.657990
Pt   23.499369   21.151673   14.273483
Pt   24.273450   21.949515   16.932822
Pt   26.945603   22.598167   17.552748
Pt   23.864021   19.863758   28.447470
Pt   20.599553   22.327453   11.709874
Pt   21.431311   23.140405   14.299537
Pt   22.257847   23.956584   16.912974
Pt   23.040140   22.885392   21.733161
Pt   18.166500   21.244282   12.664247
Pt   18.939991   22.043716   15.280912
Pt   19.770972   22.817338   17.987553
Pt   20.514527   23.692039   20.691636
Pt   21.281358   24.493727   23.311788
Pt   15.715758   20.157104   13.707194
Pt   16.496324   20.966453   16.320531
Pt   17.325438   21.740549   19.036681
Pt   18.080448   22.619611   21.741845
Pt   18.834987   23.408204   24.366579
Pt   13.331855   19.071196   14.843506
Pt   13.999613   21.766849   15.292479
Pt   14.837663   20.688976   20.087934
Pt   11.992230   21.060673   23.859373
Pt   16.403231   22.264805   25.324659
Pt   13.726871   16.315580   15.461042
Pt   14.492137   17.101817   18.085284
Pt   15.351371   17.931785   20.778208
Pt   16.083325   18.753283   23.510585
Pt   16.855539   19.562747   26.124886
Pt   14.202418   13.558012   16.162136
Pt   14.963548   14.365645   18.780648
Pt   15.822752   15.199469   21.473317
Pt   16.557505   16.017515   24.206808
Pt   17.335441   16.804661   26.826306
Pt   14.745272   10.862482   16.931652
Pt   15.479242   11.624316   19.526505
Pt   16.259884   12.432141   22.188509
Pt   14.964629   11.243926   24.461583
Pt   17.828162   14.055088   27.412579
Pt   15.986533   11.998289   14.638544
Pt   18.210843   10.970466   18.860518
Pt   19.021624   11.858601   21.551734
Pt   19.808684   12.624685   24.285932
Pt   20.567434   13.432503   26.904833
Pt   20.177342   9.565261   15.621490
Pt   20.938466   10.360071   18.244940
Pt   21.746384   11.250848   20.936119
Pt   22.537230   12.016632   23.668861
Pt   23.316737   12.818207   26.283529
Pt   22.928658   9.029632   15.083844
Pt   23.706051   9.784699   17.667866
Pt   24.492962   10.597756   20.327125
Pt   25.274268   11.413597   22.986128
Pt   26.013001   12.228765   25.563555
Pt   25.643875   9.584437   15.584487
Pt   24.929731   12.138124   16.531267
Pt   25.678239   13.009568   19.243022
Pt   26.529060   13.805467   21.947713
Pt   27.282128   14.583332   24.578552
Pt   25.370340   13.698429   12.844497
Pt   26.138762   14.496825   15.465312
Pt   26.890953   15.379599   18.169322
Pt   27.741970   16.180584   20.864440
Pt   28.499190   16.942871   23.500171
Pt   30.341919   13.398366   17.758143
Pt   30.893555   18.314068   17.640626
Pt   28.965543   18.580306   19.709249
Pt   29.682407   21.199449   20.472719
Pt   30.067297   17.492553   15.033803
Pt   29.214347   16.646586   12.542856
Pt   28.909204   20.442459   17.469498
Pt   27.047233   20.697802   19.645238
Pt   25.328148   20.795117   12.221285
Pt   24.160598   23.850275   14.852005
Pt   25.576636   25.345408   20.181122
Pt   25.790468   21.629571   24.424259
Pt   23.245984   22.966428   12.194154
Pt   23.556855   27.293883   20.056304
Pt   23.692932   25.522414   22.195650
Pt   22.956677   24.731326   19.572827
Pt   21.252429   24.969938   12.351483
Pt   22.093628   25.841142   14.842647
Pt   20.391771   27.342860   16.433305
Pt   18.852649   23.942654   13.215940
Pt   19.677949   24.723522   15.882018
Pt   20.447963   25.523972   18.513238
Pt   25.010950   22.722399   19.610732
Pt   16.432762   22.866652   14.255872
Pt   13.178528   24.162989   19.513503
Pt   18.007267   24.473855   19.557120
Pt   18.767492   25.300881   22.224293
Pt   14.789073   24.394100   15.899126
Pt   14.814487   22.566746   17.964075
Pt   15.586502   23.372171   20.604870
Pt   16.338943   24.204885   23.283629
Pt   12.825667   18.723187   19.720458
Pt   12.292467   21.526854   19.049725
Pt   11.158614   20.255595   21.298488
Pt   21.156074   28.064546   19.021849
Pt   14.058947   19.876291   17.427714
Pt   13.600108   19.526457   22.362113
Pt   12.887006   15.653362   25.275388
Pt   13.924038   23.023203   24.185507
Pt   12.470310   15.172826   17.757490
Pt   13.269440   15.987240   20.423035
Pt   14.045972   16.791612   23.068562
Pt   14.815283   17.603489   25.743904
Pt   12.959587   12.423884   18.446054
Pt   13.769443   13.257075   21.111072
Pt   14.546298   14.060694   23.753500
Pt   11.563058   17.582249   21.996525
Pt   13.546318   9.767888   19.253209
Pt   14.200715   10.454047   21.866618
Pt   13.393288   12.978098   25.917263
Pt   15.309922   14.858220   26.442575
Pt   17.428607   10.182257   16.241716
Pt   16.997850   9.883271   21.190471
Pt   15.833289   8.768547   23.430810
Pt   15.814391   12.115163   26.960910
Pt   18.928271   8.419108   17.917522
Pt   19.717944   9.248524   20.583018
Pt   17.776177   10.688252   23.832402
Pt   21.280277   10.854251   25.902547
Pt   21.668189   7.820086   17.289124
Pt   22.446565   8.666585   19.960685
Pt   23.225631   9.473132   22.601333
Pt   24.023347   10.259884   25.282414
Pt   24.419397   7.335960   16.798018
Pt   23.868006   6.975538   21.616712
Pt   26.003258   8.785032   21.965559
Pt   28.586261   9.592077   22.480220
Pt   25.238838   7.990107   19.373649
Pt   27.193476   11.247005   20.892440
Pt   27.901440   8.775211   19.882230
Pt   27.994798   12.030343   23.571831
Pt   26.877043   11.938290   14.516915
Pt   29.820991   11.872773   21.442000
Pt   28.424772   13.596187   19.816433
Pt   29.220007   14.379457   22.481739
Pt   30.651326   14.968706   14.143240
Pt   28.836616   15.140743   16.116053
Pt   29.611847   15.970557   18.743646
Pt   30.428756   16.721334   21.413220
Pt   31.467337   15.749320   16.698794
Pt   26.216154   21.711588   14.877593
Pt   26.579482   16.070444   11.853139
Pt   27.290323   18.687286   12.350821
Pt   28.116726   19.568426   14.876687
Pt   27.627841   23.322974   20.275927
Pt   25.791161   23.330211   12.820540
Pt   24.913375   24.617720   17.539691
Pt   19.614437   26.512387   13.880354
Pt   21.200510   26.371732   21.189833
Pt   17.953910   26.345656   17.445817
Pt   12.443356   23.297325   16.943856
Pt   22.881179   26.620224   17.455457
Pt   18.741856   27.062655   20.058423
Pt   17.207863   25.482049   14.870736
Pt   17.236152   23.666841   16.917369
Pt   16.316273   25.983271   21.106845
Pt   11.666792   20.676099   16.478273
Pt   13.957782   24.873809   22.117040
Pt   15.527724   25.268956   18.485322
Pt   12.011241   17.920479   17.048323
Pt   12.034860   14.857449   22.689916
Pt   15.617096   21.497183   22.747942
Pt   10.880142   16.802234   19.357468
Pt   10.475148   19.487048   18.683024
Pt   14.355875   20.354626   25.043647
Pt   11.352937   14.065307   20.053449
Pt   13.051337   22.315785   21.643631
Pt   12.412514   18.389815   24.578349
Pt   11.870657   11.403135   20.739516
Pt   12.553475   12.194562   23.350300
Pt   17.044989   13.244994   24.847442
Pt   16.190280   9.045975   18.525889
Pt   15.070512   8.058111   20.818666
Pt   16.595194   9.635009   25.995406
Pt   17.721550   7.408240   20.211793
Pt   19.259645   8.999421   25.432128
Pt   18.544194   11.482395   26.521091
Pt   20.447749   6.799346   19.596281
Pt   21.200197   7.513606   22.236588
Pt   20.497743   10.054924   23.227674
Pt   18.484949   8.119597   22.849536
Pt   21.986686   8.390724   24.815695
Pt   26.689029   9.691719   24.501859
Pt   26.415202   10.433496   18.254237
Pt   27.062748   8.006540   17.311135
Pt   24.652392   7.838072   24.174474
Pt   28.288989   10.275652   16.239022
Pt   23.125894   6.258677   19.000355
Pt   29.134215   11.048746   18.828395
Pt   29.505002   12.622489   15.175911
Pt   31.035140   14.209764   20.358984
Pt   27.647487   12.776129   17.179706
Pt   32.179967   16.516261   19.288534
Pt   31.374793   20.897308   18.417045
Pt   31.567874   18.996739   20.306088
