309
Properties=species:S:1:pos:R:3 con2xyz=T Generated=T with=T pbc="F F F"
Au      10.69773000      17.32792200      23.43141100 
Au      12.06221400      15.05242400      22.62993600 
Au      11.96794300      17.35151100      21.00885700 
Au      12.83599700      16.49075000      24.92084500 
Au      10.71445200      21.97861300      20.30763400 
Au      11.97468000      19.71432500      19.42287500 
Au      12.08524700      22.07979700      17.90342100 
Au      10.64131600      19.65907600      21.87811800 
Au      12.33782000      22.65485100      26.31163800 
Au      12.88747800      18.88301400      23.28793200 
Au      12.89758300      21.25039500      21.69487500 
Au      11.47934600      18.82401400      25.66431200 
Au      12.37701800      20.31508400      27.85042900 
Au      13.69383100      18.00759500      27.16822800 
Au      13.75050700      20.40106900      25.54244100 
Au      14.60004000      19.56457500      29.31889000 
Au      12.86544300      23.66246200      20.09085300 
Au      11.50421700      23.48871400      22.52828100 
Au      11.41858000      21.16930100      24.11538400 
Au      12.41774700      24.96099000      24.72484400 
Au      13.73444100      25.17223100      22.33363700 
Au      13.76419300      22.76653200      23.94730700 
Au      14.57284300      21.95486000      27.83519300 
Au      14.59654200      24.31066700      26.24870800 
Au      14.66092100      26.58095300      24.58574700 
Au      13.52678300      12.79730800      21.80920400 
Au      15.04503100      10.62730600      20.99374900 
Au      14.91127900      12.81715700      19.35927500 
Au      15.77794800      11.95866400      23.27140800 
Au      13.43118300      17.42333300      18.58363400 
Au      14.90359300      15.15500300      17.75745600 
Au      14.91025600      17.49373400      16.18586900 
Au      13.42684200      15.07300800      20.19218900 
Au      14.29920700      16.57185400      22.46746300 
Au      15.77124400      14.30520600      21.64275400 
Au      15.75930700      16.65514200      20.00108700 
Au      14.29273800      14.21707200      24.09161800 
Au      15.15717600      15.71594300      26.35585800 
Au      16.62816600      13.45293500      25.53306800 
Au      16.63346100      15.78964600      23.93914100 
Au      17.48333500      14.96654100      27.77508800 
Au      13.55676100      22.15129100      15.51650600 
Au      16.41617900      17.56528700      13.79327000 
Au      18.23827600      25.34065400      15.08971900 
Au      13.44041500      19.79895700      17.01506900 
Au      14.31898800      21.34888600      19.24942800 
Au      15.77030500      19.02315600      18.40659800 
Au      15.80054700      21.42388100      16.84624600 
Au      14.30689600      18.93579100      20.82123800 
Au      15.26187000      20.47596000      23.11041100 
Au      16.67494000      18.17712700      22.29195800 
Au      16.68956300      20.57049500      20.66926200 
Au      15.18210100      18.06778700      24.76521400 
Au      16.04199500      19.63319100      27.02527700 
Au      17.50044700      17.30731400      26.19500300 
Au      17.55152900      19.70835200      24.58071000 
Au      16.01970900      17.24518600      28.60032300 
Au      16.90953500      18.83484700      30.65009300 
Au      20.71617800      18.14114500      29.92695100 
Au      18.39418300      18.86745000      28.41812100 
Au      23.11980400      19.67769600      29.72669700 
Au      19.74163700      23.13541300      14.16890500 
Au      14.33178700      23.73634400      17.67928700 
Au      15.21007000      25.26103400      19.90387700 
Au      16.67575300      22.98502100      19.06570000 
Au      16.70190600      25.33189900      17.48741100 
Au      15.20680100      22.90863500      21.49083100 
Au      16.06479700      24.40314000      23.79818700 
Au      17.56196200      22.10234500      22.95963200 
Au      17.53300300      24.49964100      21.33460200 
Au      16.07909200      22.03588800      25.44200900 
Au      16.92374200      23.55252000      27.68394100 
Au      18.39946500      21.26523100      26.87287300 
Au      18.40185800      23.63113700      25.27091100 
Au      16.88813900      21.19826300      29.26225900 
Au      19.21066000      20.43066800      30.56971700 
Au      19.25984000      22.77339500      29.10958400 
Au      17.54079300      26.83363800      19.73516500 
Au      16.06425600      26.75851900      22.17431300 
Au      16.98799000      28.14916000      24.41715300 
Au      18.40351300      25.97890100      23.62930100 
Au      18.40920900      28.32188400      21.99504000 
Au      16.92396800      25.90192000      26.07734600 
Au      19.25734200      25.11885800      27.51814300 
Au      19.27253100      27.45877300      25.91243600 
Au      21.64483600      28.91625200      25.64564600 
Au      16.40259500      12.88754200      16.93718800 
Au      18.79833800      12.15006700      18.38417000 
Au      20.30762700      12.17976400      15.91251200 
Au      16.49204500      10.63784100      18.59557600 
Au      17.30406800      12.07693600      20.81354500 
Au      21.11299900       9.11005400      21.39069800 
Au      18.78598700       9.80095700      19.98082800 
Au      17.32746500       9.80030000      22.38134400 
Au      18.11253200      11.17807500      24.68306300 
Au      20.48630300      10.48602800      26.01715900 
Au      19.64872900      11.30070200      22.23414800 
Au      21.33235100      11.97360600      28.22930500 
Au      17.97544300      15.33944700      13.03402000 
Au      17.96562000      13.01097900      14.60059200 
Au      18.78611500      21.49359500      12.10745100 
Au      16.41429100      15.21575700      15.34486200 
Au      17.25821300      16.73069500      17.57213700 
Au      18.78978700      14.45482100      16.73938700 
Au      18.80234200      16.79712700      15.16062400 
Au      17.24908000      14.40231500      19.17190100 
Au      18.14831300      15.90726100      21.46634800 
Au      19.66981200      13.68388500      20.64413000 
Au      19.66115500      15.99013400      19.00329400 
Au      18.12352700      13.53817000      23.12142500 
Au      18.98593200      15.02423900      25.37773700 
Au      20.50553700      12.74188300      24.51489900 
Au      20.52652300      15.12922100      22.92322300 
Au      18.96745100      12.66130700      26.92107200 
Au      19.79728400      14.17552000      29.13915700 
Au      24.45413900      15.03526800      30.24227600 
Au      21.35925700      14.24053900      26.74776500 
Au      22.21026300      15.81854600      28.92025200 
Au      18.83657400      19.18604500      13.65420500 
Au      17.35349200      21.47195700      14.48815500 
Au      20.26205500      19.22709500      11.35791300 
Au      16.51128100      19.93860700      12.32801000 
Au      17.27199800      19.08537100      16.01935100 
Au      18.18507700      20.64914800      18.24576600 
Au      19.67589400      18.35160900      17.40990900 
Au      19.73883300      20.75183500      15.83023300 
Au      18.15783800      18.26694600      19.84179300 
Au      19.02994900      19.78798500      22.12601100 
Au      20.52593700      17.48432200      21.28734100 
Au      20.53784500      19.86198700      19.69220000 
Au      19.02084400      17.40326400      23.74231900 
Au      19.90018200      18.93620200      25.98672000 
Au      21.38963700      16.64137200      25.18307300 
Au      21.39184800      19.00772600      23.54689000 
Au      19.84705800      16.56759600      27.61857500 
Au      20.73836800      15.71007000      31.20564700 
Au      26.06224600      15.13075400      27.97970800 
Au      22.26527800      18.19772100      27.46089600 
Au      18.38394700      16.52652800      29.97238400 
Au      26.95536400      19.03064400      28.56128700 
Au      22.65412300      18.53014200      12.60535800 
Au      17.34239400      23.72780200      12.99838600 
Au      18.19524100      23.05341400      16.65003800 
Au      20.61132200      26.85952200      15.05316800 
Au      15.82774700      23.81858800      15.28754700 
Au      19.03107900      24.57084400      18.90614400 
Au      20.56197300      22.24132700      18.10630800 
Au      20.56744600      24.59860600      16.49159300 
Au      19.04238800      22.17678900      20.51891300 
Au      19.91552900      23.68680700      22.78991300 
Au      21.40671800      21.38946600      21.95428000 
Au      21.42353900      23.76215700      20.34033200 
Au      19.89948500      21.32173100      24.40072300 
Au      20.74815900      22.84637300      26.70003200 
Au      22.25780600      20.53401800      25.80245000 
Au      22.28034800      22.90080100      24.23336500 
Au      20.76071900      20.45512400      28.27849400 
Au      23.92260400      23.51513600      30.15689000 
Au      25.42929200      21.27774900      29.40675600 
Au      23.02925200      17.23286900      31.09297900 
Au      21.60413000      21.97017300      30.39925400 
Au      21.42501500      28.38156500      17.20804800 
Au      19.04898200      26.89731800      17.31122300 
Au      19.89529800      28.39039500      19.57214300 
Au      21.42625300      26.13485100      18.72461200 
Au      19.32949800      29.61500500      24.22617700 
Au      19.88203200      26.05633400      21.15685300 
Au      20.78258100      27.49538700      23.44175000 
Au      22.30644100      25.21991900      22.60392100 
Au      22.28445100      27.57024300      21.01946300 
Au      20.75301400      25.18393400      25.10184900 
Au      21.60807300      26.68169900      27.33698500 
Au      23.14244700      24.41217500      26.51681800 
Au      23.13147700      26.72207200      24.86277400 
Au      21.60779000      24.34396300      28.93497300 
Au      22.24663100      29.77557500      19.44977100 
Au      20.80696100      29.75219000      21.85057300 
Au      23.14699200      29.06241000      23.26824000 
Au      23.92521300      28.09544000      27.05503100 
Au      23.95262700      25.84818400      28.66725700 
Au      17.98190300      10.76819300      16.22655100 
Au      20.27544200       9.94777600      17.60312500 
Au      22.58801300       9.25408400      19.01676700 
Au      21.14153400      11.37844800      19.80786900 
Au      22.64216600      11.41331700      17.33134700 
Au      19.64912600       9.09753600      23.77524200 
Au      22.02052700      10.46641000      23.66335700 
Au      23.50923200      10.54756100      21.24930500 
Au      17.99701700      17.68364300      11.56849400 
Au      20.31086000      14.51426600      14.32075300 
Au      21.18178100      16.03574500      16.53636300 
Au      22.65962700      13.76269600      15.71939900 
Au      22.67145600      16.12207200      14.13334100 
Au      21.17984700      13.69523400      18.13997700 
Au      22.03799600      15.20413600      20.45455400 
Au      23.51645000      12.89539600      19.61659600 
Au      23.52978600      15.25092500      17.96864300 
Au      22.05409000      12.82301500      22.09571900 
Au      22.90853800      14.31249600      24.35387000 
Au      24.38462400      12.04164900      23.50958200 
Au      24.40185900      14.38072500      21.91400200 
Au      22.87194800      11.95206200      25.90334300 
Au      22.16459300      13.51073400      30.36036100 
Au      25.24604700      13.55476600      25.75266100 
Au      15.07859500      22.18254400      13.20881100 
Au      21.22196900      20.85357400      13.33537500 
Au      20.33935600      16.86186500      12.75186300 
Au      25.00552400      20.09249100      12.59056800 
Au      21.20103700      18.41697600      14.96050000 
Au      22.05493700      19.93918600      17.26920500 
Au      23.53909200      17.61747400      16.37492000 
Au      23.52409800      20.03131500      14.82264500 
Au      22.03876800      17.56060700      18.83987300 
Au      22.90623100      19.08621300      21.11588300 
Au      24.39117400      16.78716900      20.28415700 
Au      24.40673000      19.16799200      18.67360000 
Au      22.89542900      16.70365800      22.73027400 
Au      23.74483000      18.23747800      24.98173500 
Au      25.26198700      15.89822000      24.17078700 
Au      25.25978900      18.31045700      22.56264800 
Au      23.77305400      15.85348700      26.59539700 
Au      29.84046600      16.79766200      25.36212100 
Au      28.34555700      16.76032000      27.68326500 
Au      31.27710300      16.87670300      22.96418300 
Au      24.67065800      17.42438000      28.90103000 
Au      14.93120500      19.85251000      14.62686700 
Au      22.11172000      24.66902500      14.17493800 
Au      23.59192200      22.38958300      13.34406000 
Au      22.07185700      22.33705200      15.64119100 
Au      22.96043600      23.86703900      17.88868600 
Au      24.43653200      21.58348700      17.05384600 
Au      24.45304700      23.94326800      15.48131500 
Au      22.92691400      21.46949500      19.51175000 
Au      23.78737800      22.96395700      21.78023700 
Au      25.27840300      20.69007800      20.94943900 
Au      25.30283400      23.09327500      19.31342400 
Au      23.78014600      20.61073300      23.38898200 
Au      24.67225700      22.14317500      25.67553500 
Au      26.15135200      19.86115600      24.85338200 
Au      26.16956600      22.22225600      23.25304500 
Au      24.62057400      19.75925500      27.27264300 
Au      25.51304500      23.63644800      27.92392900 
Au      26.09131500      17.47112100      26.42025200 
Au      26.99695100      21.37569000      27.09491200 
Au      22.96448000      26.21272300      16.31193300 
Au      23.81637300      27.69898800      18.54943000 
Au      25.31425500      25.44681600      17.73674000 
Au      23.82241300      25.36478000      20.15133800 
Au      24.72397500      26.89801900      22.44275000 
Au      26.13623900      24.58192400      21.62075600 
Au      26.13143700      26.91642400      20.00932000 
Au      24.68477000      24.49755000      24.07312400 
Au      25.53030000      25.97471800      26.33496800 
Au      27.01806900      23.72817000      25.49758600 
Au      26.98546000      26.05550300      23.88996000 
Au      23.11610500      22.02801600      28.07470700 
Au      24.52340800      29.08265000      20.80382800 
Au      28.38948700      26.01716300      21.44338700 
Au      25.39627300      28.20650000      24.75134400 
Au      24.92596000      10.72230400      18.82363000 
Au      24.99258800      15.33473400      15.54850600 
Au      24.98355400      12.97050500      17.15969300 
Au      25.84873200      14.46787700      19.44769000 
Au      27.24640400      12.28768000      18.65533500 
Au      27.29779500      14.54751500      16.99273000 
Au      25.85027300      12.10627200      21.07206200 
Au      26.72047400      13.61381100      23.34202300 
Au      28.16685600      13.68187200      20.90977600 
Au      29.58632100      18.56202900      15.33817500 
Au      24.99853400      17.71471100      13.95994600 
Au      25.87323900      19.25903100      16.21237600 
Au      27.31110800      16.94238800      15.37997000 
Au      31.78472600      17.80805900      16.82617900 
Au      25.86525300      16.84232100      17.80102000 
Au      26.72927700      18.39374500      20.12276800 
Au      28.15795800      16.05638600      19.28745700 
Au      28.17033900      18.49128900      17.64632900 
Au      26.73920000      15.97080300      21.75069700 
Au      27.60179000      17.53515700      24.02400200 
Au      30.46687500      15.28333700      20.77279900 
Au      29.04924800      17.61538200      21.61222300 
Au      29.04415300      15.21678400      23.19381800 
Au      27.57941800      15.14358200      25.60119500 
Au      32.61091800      16.98281700      20.54998400 
Au      27.30533900      19.32438700      13.91255100 
Au      25.92194200      21.65730100      14.64881500 
Au      28.21905700      20.88340500      16.06262500 
Au      26.76524100      20.81349500      18.48188900 
Au      27.62690300      22.32569900      20.79400500 
Au      29.06099700      20.05038600      19.97378300 
Au      26.77878500      23.17587900      16.90318900 
Au      27.63482900      19.94106100      22.43139600 
Au      28.48820300      21.45874300      24.67707700 
Au      28.48666800      19.09707200      26.25562500 
Au      29.94953100      21.55231600      22.25539000 
Au      23.74212100      13.45843100      28.11374500 
Au      27.63354800      24.68890900      19.16689800 
Au      29.87324200      23.83361500      20.63341700 
Au      31.30095600      21.56630800      19.81341900 
Au      28.49543600      23.82163600      23.08291200 
Au      29.54791400      13.87105300      18.49486300 
Au      29.94375900      19.16232500      23.85774300 
Au      29.59040200      16.15683100      16.82229400 
Au      30.40130600      17.72695900      19.16010400 
Au      31.76390600      15.51447700      18.36667300 
Au      31.37491300      19.26472700      21.45004000 
Au      30.50000300      20.13689500      17.50855500 
Au      29.08695600      22.41727400      18.34714000 
Au      32.62731400      19.27710400      19.01012200 
