309
Generated with con2xyz
Pt   10.603821   17.256408   22.405011
Pt   12.287599   15.055922   22.451049
Pt   12.175685   16.765493   20.219989
Pt   12.602724   17.172458   24.273633
Pt   10.563635   20.784936   18.055876
Pt   12.151754   18.556541   18.010689
Pt   12.216752   20.386010   15.869880
Pt   10.519209   19.020284   20.231191
Pt   11.298466   23.348248   23.717637
Pt   12.627560   18.987714   22.019155
Pt   12.610848   20.780529   19.797799
Pt   10.923131   19.414006   24.153923
Pt   11.368941   21.570839   25.878978
Pt   12.985778   19.360194   26.038522
Pt   13.020555   21.183318   23.794151
Pt   13.443785   21.570642   27.707361
Pt   12.548929   22.606281   17.551160
Pt   10.899387   22.951446   19.788481
Pt   10.836879   21.192067   21.979704
Pt   11.354919   25.093673   21.531285
Pt   12.948218   24.796428   19.323893
Pt   13.009667   22.975512   21.577484
Pt   13.370378   23.420886   25.591125
Pt   13.368806   25.206815   23.384881
Pt   13.420788   26.895767   21.136775
Pt   14.070105   12.880696   22.479680
Pt   15.896894   10.795569   22.491133
Pt   15.757583   12.394689   20.278137
Pt   16.183921   12.800293   24.333241
Pt   13.933053   16.343349   18.036211
Pt   15.721408   14.162515   18.066135
Pt   15.701585   15.933773   15.856567
Pt   13.953378   14.569865   20.261307
Pt   14.362745   16.754528   22.061479
Pt   16.153769   14.568351   22.090717
Pt   16.120014   16.334654   19.834918
Pt   14.381276   14.976867   24.301403
Pt   14.787513   17.152612   26.091472
Pt   16.575004   14.968494   26.120844
Pt   16.550412   16.744347   23.916542
Pt   16.986904   17.136206   27.884678
Pt   13.993545   19.964819   13.792936
Pt   17.522897   15.550837   13.798472
Pt   18.264031   23.589517   12.821436
Pt   13.903288   18.138866   15.834907
Pt   14.323703   20.369033   17.572585
Pt   16.104094   18.122905   17.608857
Pt   16.127289   19.956532   15.414041
Pt   14.348220   18.530995   19.792929
Pt   14.828433   20.770345   21.615615
Pt   16.563564   18.552929   21.654101
Pt   16.539514   20.361647   19.402781
Pt   14.779980   18.942061   23.891878
Pt   15.161027   21.182439   25.646134
Pt   16.961504   18.938707   25.704764
Pt   16.978329   20.771458   23.464089
Pt   15.156361   19.350743   27.835376
Pt   15.606265   21.552624   29.477792
Pt   17.794083   21.531567   31.158434
Pt   17.343628   21.170781   27.431497
Pt   19.902816   23.272741   30.807545
Pt   20.117126   21.342913   12.903878
Pt   14.313766   22.188796   15.363137
Pt   14.707680   24.392848   17.129031
Pt   16.492989   22.195749   17.157811
Pt   16.475622   23.967578   14.956135
Pt   14.737941   22.608758   19.340435
Pt   15.132844   24.797482   21.173115
Pt   16.948782   22.579730   21.207970
Pt   16.888326   24.389748   18.938494
Pt   15.170394   23.023110   23.443187
Pt   15.550477   25.210694   25.203494
Pt   17.350474   23.013164   25.262201
Pt   17.322069   24.801092   23.035273
Pt   15.534959   23.406854   27.388637
Pt   17.712998   23.407903   29.155062
Pt   17.746204   25.211423   26.996195
Pt   16.870999   26.152786   16.725313
Pt   15.102190   26.572100   18.925568
Pt   15.573298   28.651119   20.734288
Pt   17.296745   26.561304   20.765540
Pt   17.275659   28.322608   18.515839
Pt   15.527372   26.980486   22.975710
Pt   17.724116   26.973974   24.804739
Pt   17.700693   28.733612   22.574456
Pt   17.754415   30.309655   20.336429
Pt   17.541609   11.978359   18.102075
Pt   19.787791   12.016604   19.916539
Pt   21.598667   11.556416   17.704194
Pt   17.641355   10.322239   20.349554
Pt   18.002158   12.425451   22.105041
Pt   21.985164   10.289030   23.900236
Pt   19.805757   10.233994   22.131994
Pt   18.048985   10.715417   24.275975
Pt   18.384984   12.782140   26.132469
Pt   20.615713   12.816188   27.831165
Pt   20.206912   12.409508   23.915246
Pt   21.018533   14.977953   29.507536
Pt   19.349761   13.434007   13.884976
Pt   19.379725   11.644915   15.992891
Pt   19.785081   19.207287   11.159830
Pt   17.512774   13.739266   15.897864
Pt   17.905648   15.928632   17.639550
Pt   19.758807   13.742060   17.667177
Pt   19.741253   15.554702   15.477391
Pt   17.926222   14.166106   19.851527
Pt   18.358181   16.363392   21.681972
Pt   20.193036   14.221466   21.698036
Pt   20.164426   15.947574   19.464772
Pt   18.356969   14.572023   23.945069
Pt   18.759258   16.735435   25.721190
Pt   20.606289   14.542048   25.741181
Pt   20.590604   16.354721   23.510118
Pt   18.788997   14.952919   27.912760
Pt   19.230280   17.157786   29.628955
Pt   19.544162   19.408988   31.231866
Pt   21.004692   16.744293   27.490304
Pt   19.578824   21.149265   29.141013
Pt   19.663483   17.297332   13.204894
Pt   17.857907   19.498168   13.174310
Pt   21.568842   17.043786   11.263551
Pt   21.910759   20.943449   10.817834
Pt   17.909360   17.734899   15.430494
Pt   18.328420   19.952780   17.239111
Pt   20.148629   17.740037   17.272387
Pt   20.083871   19.502264   15.048831
Pt   18.336950   18.142712   19.448388
Pt   18.745051   20.358339   21.237408
Pt   20.565599   18.141567   21.267956
Pt   20.551351   19.945775   19.041655
Pt   18.765021   18.555236   23.480181
Pt   19.185806   20.763621   25.274748
Pt   20.984926   18.551356   25.273146
Pt   20.961606   20.355023   23.052391
Pt   19.186603   18.919584   27.491069
Pt   21.655287   21.148429   30.888288
Pt   21.458331   18.890053   29.336014
Pt   21.431159   20.741644   27.094428
Pt   17.341473   19.315601   29.604896
Pt   25.748857   22.494666   28.360635
Pt   23.682468   18.770165   10.912371
Pt   20.128141   23.110074   10.857821
Pt   18.275454   21.756371   14.981660
Pt   20.497693   25.294937   12.508182
Pt   16.127748   21.731006   13.233028
Pt   18.674534   23.968110   16.740799
Pt   20.524428   21.735143   16.800138
Pt   20.508584   23.569203   14.594011
Pt   18.722656   22.163336   18.996408
Pt   19.117206   24.345873   20.797727
Pt   20.948028   22.148100   20.822432
Pt   20.924209   23.923748   18.575736
Pt   19.148303   22.567366   23.044974
Pt   19.543513   24.787631   24.854730
Pt   21.371252   22.567964   24.859164
Pt   21.350467   24.327124   22.627300
Pt   19.593968   23.002472   27.039006
Pt   21.785283   24.836870   26.707314
Pt   24.046499   24.683830   28.271660
Pt   21.846556   23.015037   28.879337
Pt   19.906174   25.100164   28.743098
Pt   20.886544   27.452846   14.256308
Pt   18.671938   25.766692   14.565826
Pt   19.059333   27.926216   16.340373
Pt   20.903071   25.740271   16.354639
Pt   21.271440   29.518825   16.056907
Pt   19.066442   26.132936   18.528214
Pt   19.510958   28.271213   20.360171
Pt   21.321400   26.055414   20.392655
Pt   21.298865   27.868219   18.177556
Pt   19.496678   26.545171   22.626692
Pt   19.899952   28.727696   24.380015
Pt   21.748075   26.523038   24.416987
Pt   21.717351   28.265181   22.173199
Pt   19.940195   26.942779   26.566237
Pt   25.605167   29.494899   19.602425
Pt   19.510633   29.977867   18.185068
Pt   21.691760   30.044865   19.956895
Pt   19.919623   30.371229   22.108243
Pt   22.089100   30.320262   23.866659
Pt   19.410313   9.979491   18.203898
Pt   21.572871   9.905454   19.969163
Pt   23.738199   9.956463   21.741740
Pt   21.989854   11.998575   21.726989
Pt   23.795488   11.538732   19.507101
Pt   20.225269   10.750472   26.028549
Pt   22.439598   12.341070   25.744017
Pt   24.220502   11.938108   23.569894
Pt   21.511328   15.164308   13.324856
Pt   21.571043   13.334610   15.489858
Pt   21.986558   15.500332   17.254672
Pt   23.785471   13.314381   17.284079
Pt   23.748856   15.093593   15.082091
Pt   22.012708   13.732339   19.462330
Pt   22.398255   15.939382   21.292564
Pt   24.202906   13.710147   21.324951
Pt   24.194860   15.484277   19.063312
Pt   22.440269   14.140474   23.559591
Pt   22.832837   16.308855   25.341530
Pt   24.631648   14.112499   25.355389
Pt   24.618754   15.891109   23.150908
Pt   22.843086   14.502381   27.518360
Pt   23.209658   16.691700   29.185496
Pt   25.020634   16.299388   27.138705
Pt   18.012474   21.385523   11.205650
Pt   21.923481   19.140212   12.933326
Pt   23.758531   16.880846   12.909570
Pt   25.877797   18.727578   12.592002
Pt   21.940464   17.291649   15.046299
Pt   22.345574   19.525075   16.834526
Pt   24.167612   17.276122   16.839541
Pt   24.162584   19.111751   14.652499
Pt   22.375260   17.723947   19.062439
Pt   22.770162   19.934081   20.858089
Pt   24.580831   17.714713   20.888714
Pt   24.558816   19.515855   18.649473
Pt   22.790300   18.124768   23.088532
Pt   23.171661   20.336093   24.852791
Pt   25.005700   18.084702   24.937522
Pt   24.979731   19.921976   22.688280
Pt   23.196976   18.528874   27.116780
Pt   29.270187   19.894132   26.254441
Pt   27.476119   20.293140   28.326030
Pt   31.000837   19.489973   24.093769
Pt   23.596284   20.743480   28.919327
Pt   15.713805   17.755599   13.766790
Pt   22.348768   23.165483   12.450220
Pt   24.155706   20.961120   12.475067
Pt   22.371781   21.367985   14.633023
Pt   22.758699   23.553196   16.371417
Pt   24.573683   21.346285   16.404409
Pt   24.555911   23.152137   14.221956
Pt   22.754502   21.731011   18.611186
Pt   23.161699   23.913723   20.411577
Pt   24.963193   21.721615   20.448085
Pt   24.970365   23.537983   18.182047
Pt   23.175507   22.143802   22.653529
Pt   23.588129   24.355158   24.482752
Pt   25.397664   22.159926   24.494040
Pt   25.387014   23.946203   22.274636
Pt   23.566911   22.547033   26.674773
Pt   23.970841   26.527396   26.181287
Pt   25.349230   20.324753   26.688597
Pt   25.809330   24.347380   26.243217
Pt   22.726477   25.345040   14.190762
Pt   23.123798   27.502917   15.961968
Pt   24.943630   25.319989   15.979088
Pt   23.157562   25.709771   18.149488
Pt   23.504173   27.857820   19.987986
Pt   25.354046   25.719356   20.010404
Pt   25.323693   27.489668   17.764638
Pt   23.582950   26.111613   22.243933
Pt   23.964306   28.305576   23.993856
Pt   25.771280   26.123328   24.045059
Pt   25.743423   27.895385   21.820152
Pt   22.116174   28.639900   26.014364
Pt   23.449742   29.569199   17.817681
Pt   27.434683   27.412681   19.625643
Pt   23.860581   29.965408   21.736865
Pt   25.920693   11.615027   21.350658
Pt   25.948623   15.076987   16.882224
Pt   25.969269   13.289109   19.111862
Pt   26.365170   15.473978   20.925500
Pt   28.072776   13.370706   20.955136
Pt   28.115303   15.052815   18.713790
Pt   26.392355   13.688205   23.166471
Pt   26.789217   15.879285   24.962027
Pt   28.534880   15.455714   22.776026
Pt   30.186861   18.701777   16.175866
Pt   25.949575   16.877126   14.681985
Pt   26.341844   19.099818   16.442960
Pt   28.110877   16.863674   16.477191
Pt   32.232909   18.706850   18.033624
Pt   26.357168   17.261879   18.657044
Pt   26.741966   19.508388   20.487013
Pt   28.501501   17.248877   20.531353
Pt   28.493727   19.092473   18.253897
Pt   26.780493   17.673138   22.758158
Pt   27.167387   19.912261   24.542778
Pt   30.660591   17.248035   22.401534
Pt   28.911286   19.504301   22.367558
Pt   28.939388   17.674208   24.578723
Pt   27.182076   18.078197   26.741889
Pt   32.631387   19.091508   21.902240
Pt   28.043764   18.711198   14.371972
Pt   26.344180   20.931166   14.243408
Pt   28.503232   20.919418   16.036846
Pt   26.756064   21.339210   18.217169
Pt   27.141022   23.538859   20.047964
Pt   28.899868   21.348947   20.086879
Pt   26.739056   23.134009   16.011309
Pt   27.172368   21.748155   22.312518
Pt   27.569987   23.938096   24.073364
Pt   27.580064   22.134529   26.292940
Pt   29.317834   23.543605   21.891751
Pt   25.355441   18.526902   28.799200
Pt   27.129821   25.319541   17.802493
Pt   29.215342   25.239302   19.663601
Pt   30.971108   23.052835   19.702968
Pt   27.543680   25.725068   21.851168
Pt   30.203930   15.141440   20.564429
Pt   29.333731   21.726222   24.133428
Pt   30.242957   16.838798   18.305125
Pt   30.566948   19.098577   20.140608
Pt   32.243710   16.964941   20.178957
Pt   31.059443   21.340520   21.954779
Pt   30.638549   20.932141   17.860407
Pt   28.900884   23.138168   17.837462
Pt   32.618496   20.833812   19.756654
