309
Generated with con2xyz
Pt   11.256010   15.764649   21.103144
Pt   13.163836   13.754849   21.194339
Pt   12.998551   15.516521   19.008701
Pt   13.139924   15.831692   23.086946
Pt   11.087440   19.409248   16.858707
Pt   12.909436   17.366242   16.851769
Pt   12.904549   19.260404   14.772029
Pt   11.105848   17.579599   18.977674
Pt   11.210011   21.845944   22.627103
Pt   13.099326   17.713033   20.889276
Pt   13.013494   19.567579   18.728714
Pt   11.241760   17.885325   22.929248
Pt   11.356487   20.016030   24.739410
Pt   13.190598   17.990560   24.932304
Pt   13.151925   19.879321   22.742446
Pt   13.318218   20.177960   26.688238
Pt   12.880966   21.451115   16.537191
Pt   11.078235   21.542200   18.675053
Pt   11.082438   19.713293   20.804869
Pt   11.199059   23.662397   20.500336
Pt   12.941459   23.609901   18.389957
Pt   13.070840   21.733123   20.584015
Pt   13.159163   22.075856   24.620468
Pt   13.083513   23.923418   22.470114
Pt   13.083941   25.684012   20.283275
Pt   15.163003   11.778066   21.280762
Pt   17.194789   9.893910   21.358579
Pt   17.013820   11.542730   19.180316
Pt   17.160902   11.861492   23.258828
Pt   14.913479   15.359153   16.927763
Pt   16.919577   13.371419   17.012021
Pt   16.828077   15.210915   14.870591
Pt   14.997503   13.520713   19.102190
Pt   15.063816   15.677138   20.978727
Pt   17.072474   13.690764   21.063461
Pt   16.983094   15.519531   18.856250
Pt   15.141061   13.836566   23.166695
Pt   15.199965   15.984281   25.028856
Pt   17.212374   14.000168   25.114496
Pt   17.129090   15.837568   22.960989
Pt   17.267449   16.141339   26.940021
Pt   14.818655   19.112544   12.715388
Pt   16.748248   17.068924   12.723330
Pt   18.718540   23.181448   12.188014
Pt   14.817919   17.224980   14.776682
Pt   14.888040   19.414928   16.612443
Pt   16.902558   17.372863   16.682487
Pt   16.811645   19.264044   14.545198
Pt   14.990771   17.517682   18.767811
Pt   15.120843   19.735022   20.666333
Pt   17.084138   17.713674   20.755093
Pt   16.999846   19.582575   18.556983
Pt   15.132524   17.836629   22.879341
Pt   15.174017   20.047922   24.715312
Pt   17.187113   18.005639   24.810940
Pt   17.150788   19.905586   22.636121
Pt   15.246873   18.157466   26.856799
Pt   15.375653   20.332758   28.590956
Pt   17.326201   18.303103   28.753472
Pt   17.242550   20.210394   26.626793
Pt   17.466606   20.473208   30.401021
Pt   16.780964   18.969249   10.759551
Pt   14.791649   21.294849   14.462103
Pt   14.855483   23.471302   16.300238
Pt   16.866300   21.473000   16.371412
Pt   16.774146   23.326606   14.235768
Pt   14.959951   21.627135   18.454041
Pt   15.013210   23.781294   20.361019
Pt   17.062812   21.773220   20.441340
Pt   16.930277   23.639296   18.230395
Pt   15.111425   21.947703   22.568911
Pt   15.151399   24.095229   24.410936
Pt   17.177908   22.110360   24.507965
Pt   17.091224   23.956810   22.345513
Pt   15.213083   22.229780   26.546560
Pt   17.288397   22.398320   28.449434
Pt   17.222847   24.256471   26.336850
Pt   16.836156   25.465831   16.072746
Pt   14.914587   25.616108   18.174103
Pt   15.061897   27.668153   20.063163
Pt   17.000029   25.775554   20.137036
Pt   16.905016   27.597621   17.938954
Pt   15.064383   25.924435   22.243568
Pt   17.150209   26.090367   24.199261
Pt   17.061948   27.905314   22.032219
Pt   17.075427   29.555127   19.843268
Pt   18.947097   11.385367   17.108254
Pt   21.002197   9.578824   17.279965
Pt   23.033747   11.391662   16.954476
Pt   19.093615   9.673386   19.317287
Pt   19.130654   11.750303   21.142340
Pt   23.203284   9.985716   23.127646
Pt   21.068210   11.597931   19.057585
Pt   19.238065   9.985617   23.270044
Pt   19.244343   12.018215   25.189825
Pt   21.294254   10.204032   25.159748
Pt   21.218104   11.908094   23.080529
Pt   21.362016   12.249605   27.025868
Pt   18.752485   15.060496   12.826098
Pt   20.838103   13.110083   12.985822
Pt   20.691484   14.934223   11.003698
Pt   18.867217   13.208051   14.954442
Pt   18.923628   15.368765   16.764490
Pt   20.984170   13.386283   16.852123
Pt   20.898234   15.230797   14.682006
Pt   19.001567   13.548137   18.933312
Pt   19.093915   15.724652   20.838905
Pt   21.137776   13.782973   20.916117
Pt   21.051247   15.567591   18.726900
Pt   19.152196   13.865981   23.047585
Pt   19.221419   16.000215   24.894563
Pt   21.288329   14.014241   24.969942
Pt   21.208328   15.896810   22.801808
Pt   19.312817   14.154090   27.028877
Pt   19.359574   16.309132   28.840065
Pt   21.418776   14.384662   28.842793
Pt   21.352245   16.163123   26.798313
Pt   21.464040   16.553527   30.564248
Pt   18.770934   16.979538   10.789833
Pt   18.794010   19.115604   12.530734
Pt   20.882042   17.124554   12.524068
Pt   20.681242   19.052849   10.485824
Pt   18.855255   17.218534   14.615192
Pt   18.933776   19.428558   16.471803
Pt   20.966261   17.407094   16.568209
Pt   20.922351   19.262493   14.419716
Pt   19.011942   17.564884   18.648876
Pt   19.083931   19.752549   20.526546
Pt   21.117683   17.738109   20.608009
Pt   21.026075   19.598358   18.425317
Pt   19.168209   17.889388   22.716337
Pt   19.241051   20.072528   24.569355
Pt   21.279689   18.065885   24.650842
Pt   21.191181   19.922037   22.479442
Pt   19.273011   18.157779   26.702912
Pt   19.366351   20.361513   28.473879
Pt   21.408973   18.367033   28.558846
Pt   21.385701   20.278248   26.481820
Pt   19.466097   18.516023   30.543575
Pt   21.413443   20.480477   30.352468
Pt   18.713046   20.980628   10.469143
Pt   20.795466   21.141027   12.308839
Pt   18.804142   21.329651   14.321477
Pt   20.764648   25.117283   12.034296
Pt   16.723236   21.155581   12.410990
Pt   18.870089   23.492029   16.138919
Pt   20.946528   21.459266   16.240788
Pt   20.856060   23.344228   14.080455
Pt   18.988893   21.614499   18.329170
Pt   19.054792   23.775501   20.211004
Pt   21.095320   21.779680   20.293108
Pt   21.010518   23.615994   18.092525
Pt   19.150709   21.936527   22.402130
Pt   19.217076   24.122172   24.284605
Pt   21.265256   22.120129   24.346058
Pt   21.165464   23.962032   22.176808
Pt   19.301661   22.280300   26.411695
Pt   19.314668   24.323411   28.196334
Pt   21.389801   22.420976   28.358459
Pt   21.324941   24.335670   26.260570
Pt   19.396217   22.429276   30.216782
Pt   20.825814   27.239476   13.853791
Pt   18.792369   25.329948   14.002818
Pt   18.842533   27.451656   15.851462
Pt   20.918582   25.488515   15.922167
Pt   20.870226   29.270162   15.715111
Pt   18.932595   25.621690   17.997925
Pt   19.035298   27.721425   19.904639
Pt   21.089458   25.729065   19.967176
Pt   20.988070   27.597493   17.816501
Pt   19.098911   25.935371   22.126280
Pt   19.156809   28.046227   23.944420
Pt   21.223459   26.171146   24.120255
Pt   21.138769   27.873020   21.830456
Pt   19.212982   26.165952   26.083020
Pt   25.094710   29.639841   19.520111
Pt   18.953089   29.474409   17.759215
Pt   21.001140   29.767507   19.677596
Pt   19.104106   29.773773   21.773239
Pt   23.127212   29.855178   21.642357
Pt   20.919032   11.302013   15.118197
Pt   23.054864   9.675760   19.171302
Pt   25.093706   9.896112   21.073452
Pt   23.152853   11.755541   20.997416
Pt   25.108684   11.547387   18.883413
Pt   21.148996   9.756485   21.226243
Pt   23.339367   12.023741   25.043721
Pt   25.264049   11.871767   22.969137
Pt   22.851173   15.072288   12.677883
Pt   22.946687   13.217441   14.790129
Pt   23.024430   15.376245   16.611375
Pt   25.036689   13.383163   16.706690
Pt   24.949420   15.217474   14.543330
Pt   23.115640   13.555882   18.781976
Pt   23.164044   15.737039   20.688846
Pt   25.189737   13.705117   20.769123
Pt   25.118029   15.536645   18.555647
Pt   23.272370   13.880073   22.903440
Pt   23.337113   16.026125   24.759644
Pt   25.345531   14.028429   24.827966
Pt   25.269870   15.864935   22.666513
Pt   23.400571   14.162444   26.883273
Pt   23.470831   16.310082   28.703056
Pt   25.421545   16.194365   26.666211
Pt   22.884330   19.103147   12.245600
Pt   22.646294   21.038995   10.334589
Pt   24.859106   17.108099   12.501833
Pt   26.773260   19.130266   12.329030
Pt   22.936491   17.240573   14.464715
Pt   22.986382   19.441947   16.351136
Pt   25.032482   17.383162   16.386698
Pt   24.906752   19.286363   14.245896
Pt   23.072692   17.570762   18.500818
Pt   23.130890   19.760420   20.364717
Pt   25.161430   17.738400   20.448045
Pt   25.079547   19.600279   18.262128
Pt   23.226527   17.905714   22.562208
Pt   23.315113   20.103342   24.424375
Pt   25.333524   18.045938   24.521103
Pt   25.225632   19.926265   22.309682
Pt   23.404288   18.224918   26.584886
Pt   23.486816   20.462857   28.458374
Pt   25.378267   18.338946   28.449714
Pt   29.319065   20.215112   26.021509
Pt   23.405783   18.501038   30.370222
Pt   20.689939   22.962746   10.309274
Pt   22.834368   23.197368   12.019992
Pt   24.806931   21.138038   12.106580
Pt   22.926969   21.316338   14.140038
Pt   22.988645   23.498032   15.977752
Pt   25.013801   21.496060   16.066802
Pt   24.917366   23.333128   13.910070
Pt   23.051764   21.626613   18.181649
Pt   23.126058   23.780284   20.056443
Pt   25.146108   21.784982   20.127505
Pt   25.082483   23.659951   17.918724
Pt   23.205243   21.941960   22.237647
Pt   23.265619   24.125326   24.119450
Pt   25.307205   22.126865   24.224266
Pt   25.232566   23.977576   22.032715
Pt   23.352467   22.326439   26.316400
Pt   23.393379   26.211884   25.822128
Pt   25.433296   20.240232   26.409233
Pt   25.393877   24.287124   25.992093
Pt   22.885286   25.344024   13.842698
Pt   22.949344   27.466342   15.684498
Pt   24.983747   25.487911   15.754550
Pt   23.058753   25.642133   17.842933
Pt   23.092771   27.804567   19.741762
Pt   25.128033   25.813883   19.822603
Pt   25.043055   27.624675   17.622658
Pt   23.205740   25.958522   21.960260
Pt   23.253012   28.077630   23.777462
Pt   25.309272   26.132692   23.869453
Pt   25.201088   27.943575   21.706704
Pt   21.160978   29.857146   23.578386
Pt   22.977671   29.545075   17.558123
Pt   27.065739   27.698496   19.596085
Pt   23.108082   31.379466   19.467831
Pt   27.101646   11.783792   20.850856
Pt   27.019963   15.371171   16.474438
Pt   27.098902   13.523925   18.654306
Pt   27.177070   15.699323   20.532797
Pt   29.066669   13.756255   20.618139
Pt   29.061078   15.510794   18.416303
Pt   27.254383   13.856921   22.734111
Pt   27.327264   16.027697   24.599332
Pt   29.227765   15.847090   22.500196
Pt   30.865055   19.442965   16.063559
Pt   26.941533   17.230575   14.310965
Pt   27.011897   19.441219   16.150915
Pt   28.982789   17.396266   16.219972
Pt   32.781501   19.597304   18.054089
Pt   27.108117   17.547178   18.318727
Pt   27.141794   19.761309   20.204680
Pt   29.154386   17.707055   20.293802
Pt   29.079864   19.599175   18.098857
Pt   27.251158   17.865218   22.422872
Pt   27.295459   20.083687   24.267040
Pt   31.154773   17.861105   22.253110
Pt   29.186532   19.921392   22.181620
Pt   29.302996   18.024681   24.358406
Pt   27.372917   18.213719   26.404630
Pt   31.135761   20.060638   24.012390
Pt   28.838286   19.291791   14.149586
Pt   26.907438   21.325076   13.977781
Pt   28.964181   21.479170   15.891716
Pt   27.092826   21.650299   17.995027
Pt   27.146952   23.820472   19.894996
Pt   29.141485   21.809803   19.970325
Pt   26.988783   23.501703   15.829715
Pt   27.233716   21.982528   22.103259
Pt   27.313408   24.131111   23.948149
Pt   27.400361   22.269853   26.069247
Pt   29.217311   23.983269   21.849591
Pt   25.467848   22.427497   27.965242
Pt   27.053951   25.659981   17.696018
Pt   29.044891   25.744119   19.664583
Pt   31.008827   23.773052   19.739675
Pt   27.222384   25.969742   21.772571
Pt   31.018795   15.729699   20.385539
Pt   29.311820   22.128022   24.021980
Pt   30.997964   17.518869   18.138900
Pt   31.093921   19.761942   20.143949
Pt   32.823122   17.705319   20.086407
Pt   31.156785   21.964677   21.920871
Pt   30.987824   21.660254   17.808607
Pt   29.037258   23.675970   17.769202
Pt   32.822660   21.784214   19.754560
