309
Generated with con2xyz
Pt   12.582633   23.612111   22.635772
Pt   16.593969   21.876509   16.631192
Pt   21.008451   16.100545   14.582371
Pt   18.828982   17.904235   18.611498
Pt   14.475083   23.791446   16.647266
Pt   12.850668   19.622597   18.664704
Pt   18.670282   19.845007   24.770339
Pt   26.305027   28.523701   20.847774
Pt   18.709751   19.945040   16.618076
Pt   18.373615   23.897676   28.785954
Pt   14.696040   21.633833   26.674689
Pt   24.225956   28.336665   26.905885
Pt   12.512326   25.543710   20.700898
Pt   16.731367   19.862032   14.603195
Pt   20.577529   22.028310   24.788986
Pt   16.331596   25.938320   16.673221
Pt   20.970457   16.050495   18.597979
Pt   18.273603   25.999216   22.819334
Pt   16.547465   21.773503   24.744592
Pt   18.455083   23.988220   20.744968
Pt   24.862052   18.199635   28.743213
Pt   16.412679   23.844370   22.787831
Pt   18.748893   20.007901   12.632746
Pt   18.335846   26.092582   14.691864
Pt   16.962091   15.788839   18.586391
Pt   19.088995   13.937574   18.570887
Pt   13.032476   17.608920   20.608038
Pt   20.472641   24.141036   18.720971
Pt   18.595066   21.927697   22.754986
Pt   14.500938   21.665822   22.781722
Pt   24.021643   32.262499   18.852047
Pt   16.936213   15.735155   22.673603
Pt   18.488527   24.098799   12.679326
Pt   20.808524   17.962370   24.765622
Pt   20.369003   26.234165   12.715852
Pt   14.440429   23.674280   24.747583
Pt   25.088698   16.362260   14.605493
Pt   22.785674   20.225250   16.685523
Pt   18.599325   22.028535   14.647859
Pt   20.029096   30.074424   24.894967
Pt   21.237458   12.151224   22.628805
Pt   18.055919   30.010238   18.748072
Pt   14.698461   19.621696   24.700670
Pt   22.026905   32.256934   20.851486
Pt   20.386136   24.065772   26.806303
Pt   14.335077   25.770977   18.677988
Pt   16.677336   19.752519   22.744001
Pt   28.326659   28.662990   18.819663
Pt   22.088093   30.211618   22.851938
Pt   22.065822   30.107067   26.835629
Pt   30.413783   26.757363   18.866859
Pt   14.638528   21.725406   18.669638
Pt   26.412009   26.514754   22.887462
Pt   16.304523   25.892656   20.749551
Pt   20.942677   16.004045   22.725840
Pt   25.207665   14.357177   16.581847
Pt   21.109764   14.096497   16.563368
Pt   30.973599   16.744721   20.728831
Pt   20.856281   18.057722   16.609062
Pt   25.086386   16.301067   18.632684
Pt   22.794492   20.291359   12.707536
Pt   18.969823   15.947486   16.571601
Pt   23.096725   14.167561   26.643390
Pt   22.623483   22.122033   26.783459
Pt   18.854459   17.962674   14.598383
Pt   19.299323   12.109770   20.601199
Pt   23.211963   12.315016   24.616583
Pt   22.756386   18.048114   30.493219
Pt   16.823866   17.762354   20.657109
Pt   20.246149   26.046097   28.818969
Pt   14.738870   19.703469   16.598749
Pt   24.975949   18.391876   12.647008
Pt   22.925889   18.374967   10.823659
Pt   20.574013   24.190945   10.816025
Pt   16.787697   17.718832   24.723047
Pt   22.521173   24.300006   16.730627
Pt   22.408179   26.348821   14.725512
Pt   12.799307   21.628967   16.709664
Pt   18.592988   21.978435   18.690979
Pt   20.736047   20.072901   18.674366
Pt   30.801604   20.716842   16.704773
Pt   16.851845   17.811008   16.579067
Pt   28.485629   24.577533   26.903823
Pt   15.048904   15.716325   20.612268
Pt   28.793190   20.482055   26.811690
Pt   16.622454   21.826496   20.737752
Pt   24.656308   22.223824   28.898920
Pt   25.169891   14.266542   20.667474
Pt   18.249072   25.945435   26.821014
Pt   20.931997   15.946127   26.727080
Pt   16.099785   29.769561   20.786196
Pt   20.075227   30.159823   20.817930
Pt   30.554996   24.832712   16.759909
Pt   24.663892   22.436899   12.760112
Pt   21.121962   14.079291   20.639712
Pt   28.926672   18.506602   24.802936
Pt   18.637934   19.809249   28.744671
Pt   20.716079   20.021111   22.739846
Pt   20.154422   28.125512   22.852372
Pt   24.203942   30.417399   16.775622
Pt   12.592914   23.576740   18.710902
Pt   22.170959   30.231642   14.824142
Pt   14.827865   17.604666   22.696602
Pt   20.679960   19.950126   26.784947
Pt   16.382120   23.793828   26.783079
Pt   20.555260   21.979360   28.737806
Pt   16.155196   27.863214   22.814538
Pt   18.607971   21.835841   30.581555
Pt   16.642716   19.704164   26.737321
Pt   22.275163   26.065956   30.649755
Pt   25.159745   14.261786   24.743335
Pt   22.964603   16.105398   28.640355
Pt   18.774136   17.816532   26.728838
Pt   26.523499   24.483695   24.868978
Pt   26.813001   20.534152   12.687797
Pt   14.264403   27.676358   20.750464
Pt   18.447281   24.061876   16.665867
Pt   20.097207   30.160346   16.733899
Pt   16.470712   23.938721   14.651058
Pt   22.845854   18.090872   26.792231
Pt   18.176144   28.027896   20.784041
Pt   16.266531   25.831159   24.815204
Pt   25.019023   16.215232   26.767235
Pt   12.634724   21.570979   20.687246
Pt   22.122669   30.253303   18.816615
Pt   26.487683   26.589855   14.745495
Pt   17.154249   13.862797   20.607570
Pt   18.135705   27.963788   24.850816
Pt   24.634070   22.338209   20.758147
Pt   24.530734   24.446780   10.834026
Pt   16.182035   27.905889   18.721136
Pt   16.722908   19.791803   18.618072
Pt   18.025860   29.970062   22.853923
Pt   16.697267   21.929612   12.722238
Pt   24.130654   30.341735   20.851273
Pt   24.469885   26.486827   12.745933
Pt   20.333649   26.209654   16.704288
Pt   18.396818   23.959167   24.808870
Pt   22.902934   18.195795   18.661743
Pt   23.156655   14.215664   18.633274
Pt   25.260446   12.355230   22.698053
Pt   23.258283   12.421968   16.632937
Pt   18.948013   15.894044   20.647503
Pt   24.714340   22.396423   16.704375
Pt   25.282764   12.405527   18.588524
Pt   27.311110   12.584852   20.658906
Pt   20.467227   24.220136   14.700154
Pt   22.652495   22.285467   14.767605
Pt   20.824130   20.224046   10.770015
Pt   23.167266   14.331967   14.644536
Pt   25.061979   16.258554   22.746509
Pt   12.847401   19.492059   22.586488
Pt   23.131883   14.171635   22.674155
Pt   19.062318   13.886145   22.673723
Pt   26.523060   22.576111   10.877664
Pt   21.262472   12.202787   18.600833
Pt   21.059700   13.995001   24.705029
Pt   23.027809   16.209168   20.675296
Pt   24.763741   20.227572   26.810345
Pt   22.601589   22.186567   22.769517
Pt   20.418864   23.968690   30.677405
Pt   27.189189   14.411635   22.734764
Pt   24.859458   20.367297   14.679481
Pt   20.606443   22.131116   16.698412
Pt   20.188364   28.174603   18.744116
Pt   30.920034   18.687475   18.695773
Pt   24.766349   20.280843   22.764525
Pt   16.459863   23.911632   18.666232
Pt   29.078318   16.562696   18.666888
Pt   18.731166   22.081620   10.845255
Pt   22.923180   18.223131   14.631473
Pt   18.915428   15.850558   24.715280
Pt   26.845210   20.478740   16.664582
Pt   24.924798   18.309606   20.710502
Pt   14.752816   19.697072   20.669490
Pt   18.719012   19.917367   20.696914
Pt   26.907636   18.337551   26.800846
Pt   22.873965   18.144097   22.732988
Pt   22.501739   22.164501   30.725874
Pt   24.311351   28.419012   18.767480
Pt   18.799033   17.859288   22.730132
Pt   24.618751   22.293339   24.787789
Pt   26.369256   26.449990   26.907488
Pt   26.760638   20.347341   28.701966
Pt   22.462996   24.192051   24.823782
Pt   24.969624   18.319421   16.635291
Pt   20.730997   20.092261   14.652845
Pt   24.331635   28.462438   14.750717
Pt   22.342683   26.229292   22.832411
Pt   26.987173   18.495590   14.639317
Pt   26.792746   22.553593   14.629643
Pt   20.452485   24.090014   22.791469
Pt   22.374685   26.280343   18.755221
Pt   21.979342   32.011927   24.845976
Pt   26.961191   18.423745   18.667600
Pt   30.730542   22.760354   22.874540
Pt   24.353922   26.313080   28.863491
Pt   22.050615   32.089575   16.854673
Pt   24.389408   26.386659   20.806970
Pt   14.496019   23.703201   20.715156
Pt   28.640989   22.554735   24.826434
Pt   14.858877   17.670711   18.582948
Pt   24.507020   24.303351   26.868124
Pt   20.762244   17.925575   28.724218
Pt   22.173225   28.104198   28.788578
Pt   16.590556   21.731389   28.682852
Pt   30.617105   24.793087   20.886907
Pt   24.534020   24.396055   18.746698
Pt   24.910906   18.224013   24.791923
Pt   24.606630   24.468543   14.730311
Pt   20.853520   18.037835   20.683385
Pt   22.540597   24.328215   12.756126
Pt   17.932463   31.838823   20.816519
Pt   25.947522   32.313979   20.884165
Pt   26.629179   22.445496   22.801710
Pt   19.992374   32.061103   18.777405
Pt   22.269229   28.322654   16.745564
Pt   22.764447   20.123847   28.813289
Pt   24.275073   28.370611   22.895874
Pt   18.307035   26.055351   18.706298
Pt   22.728070   20.125513   24.764930
Pt   26.149523   30.488960   22.920497
Pt   20.275967   26.110173   24.848223
Pt   28.090697   30.563537   20.881648
Pt   14.304368   25.735780   22.789816
Pt   24.453034   26.460603   16.729204
Pt   26.259410   28.474915   24.928389
Pt   22.303661   28.278062   12.826470
Pt   24.128507   30.336935   24.922957
Pt   22.220649   28.216806   20.815488
Pt   23.224483   12.166182   20.630323
Pt   26.194741   30.524756   18.815966
Pt   18.196862   28.061265   16.708103
Pt   20.240944   28.210991   14.717146
Pt   27.211899   14.458798   18.625870
Pt   22.989100   16.107248   24.751020
Pt   26.790929   20.363792   24.820506
Pt   23.040025   16.198640   16.605825
Pt   25.452381   10.711819   20.623643
Pt   28.579567   24.680963   18.790951
Pt   29.139990   14.655026   20.694222
Pt   27.064303   16.397818   20.704919
Pt   29.060371   16.514562   22.766833
Pt   22.429360   26.288025   10.916391
Pt   24.779915   20.471355   10.786321
Pt   23.052248   16.337740   12.688453
Pt   28.931978   18.527171   20.745342
Pt   20.659490   22.183067   12.716015
Pt   26.614386   22.399748   26.828267
Pt   30.616497   22.791725   14.884319
Pt   26.560566   24.597356   12.736062
Pt   32.388957   24.793457   18.808122
Pt   30.759781   20.693248   24.789362
Pt   18.514252   21.873597   26.777858
Pt   27.053519   16.375377   24.773237
Pt   27.096292   16.462921   16.622677
Pt   20.712097   19.973797   30.622720
Pt   30.400780   24.713242   24.889652
Pt   26.944813   18.383869   22.784667
Pt   24.804758   20.341067   18.701217
Pt   22.438267   24.126632   28.767962
Pt   28.463809   26.700038   16.782243
Pt   28.575108   24.706449   14.766793
Pt   32.501226   22.871397   16.848637
Pt   30.472506   22.669249   26.781919
Pt   26.681751   22.500326   18.764346
Pt   22.752040   20.183047   20.715437
Pt   20.143810   28.075061   26.868973
Pt   19.960021   32.023645   22.890225
Pt   24.345086   24.263212   30.688026
Pt   26.510005   24.498208   20.803557
Pt   24.381158   26.359569   24.894006
Pt   28.667902   22.641652   20.834534
Pt   32.665684   20.863116   18.785756
Pt   28.539215   22.483473   28.695279
Pt   22.641001   22.237446   18.707686
Pt   20.325047   26.121370   20.778545
Pt   22.676759   22.334397   10.730467
Pt   14.699999   21.777431   14.696883
Pt   28.802538   20.560330   18.705398
Pt   19.795858   33.708471   20.847750
Pt   26.341967   28.561952   16.771455
Pt   28.681546   22.649857   16.728868
Pt   22.201917   28.232026   24.880990
Pt   28.415964   26.624876   20.845661
Pt   20.602953   22.082906   20.724334
Pt   23.981310   32.226696   22.883254
Pt   30.122377   28.692188   20.895344
Pt   28.825938   20.638402   14.713281
Pt   26.446043   26.557227   18.765139
Pt   30.731506   20.709977   20.781374
Pt   20.881067   18.125753   12.623223
Pt   30.292066   26.744707   22.899962
Pt   30.617604   22.746420   18.788162
Pt   26.447661   24.373827   28.849825
Pt   28.951807   18.583993   16.654699
Pt   22.488819   24.241190   20.764458
Pt   24.493861   24.354945   22.817397
Pt   32.573899   22.792354   20.761712
Pt   30.910515   18.643006   22.812885
Pt   32.721418   18.876465   20.749506
Pt   32.620690   20.789686   22.718008
Pt   28.811297   20.549704   22.825664
Pt   26.598558   24.566887   16.725716
Pt   28.273798   28.642003   22.923357
Pt   22.316574   26.208560   26.857744
Pt   28.388725   26.617433   24.918479
Pt   26.803373   20.450887   20.756362
Pt   28.544814   24.613832   22.858267
