309
Generated with con2xyz
Pt   20.954382   20.115470   10.193127
Pt   20.956890   20.106440   12.892173
Pt   20.960461   20.099313   15.763964
Pt   20.964373   20.102290   18.647013
Pt   20.966769   20.096599   21.546444
Pt   20.969623   20.086710   24.431446
Pt   20.972768   20.081891   27.305528
Pt   20.975094   20.075444   30.004599
Pt   23.260029   20.867723   11.507614
Pt   23.297650   20.869339   14.287894
Pt   23.284938   20.853392   17.186234
Pt   23.291853   20.853323   20.097844
Pt   23.291213   20.846736   23.008895
Pt   23.310273   20.850444   25.908119
Pt   23.277850   20.833414   28.688787
Pt   20.959268   22.539643   11.514104
Pt   20.961204   22.573453   14.292043
Pt   20.964224   22.551675   17.188401
Pt   20.967530   22.552228   20.102265
Pt   20.970271   22.542808   23.015785
Pt   20.973376   22.553905   25.913441
Pt   20.975893   22.507085   28.692167
Pt   18.653719   20.875143   11.512015
Pt   18.620700   20.875360   14.292459
Pt   18.640041   20.860450   17.189934
Pt   18.639870   20.860142   20.100627
Pt   18.646502   20.853089   23.012867
Pt   18.633528   20.857061   25.912231
Pt   18.671471   20.839545   28.692210
Pt   19.526256   18.157536   11.515669
Pt   19.515007   18.101932   14.304187
Pt   19.536771   18.102240   17.193967
Pt   19.540110   18.108513   20.088258
Pt   19.541876   18.098655   22.992781
Pt   19.528660   18.087980   25.890083
Pt   19.547511   18.120152   28.676129
Pt   22.378339   18.152901   11.513197
Pt   22.395296   18.097354   14.302235
Pt   22.381795   18.096318   17.193991
Pt   22.389564   18.101566   20.089431
Pt   22.393332   18.094006   22.991187
Pt   22.410292   18.083074   25.886582
Pt   22.393561   18.115017   28.672844
Pt   25.585491   21.624031   12.950490
Pt   25.618816   21.624848   15.731749
Pt   25.605519   21.610335   18.636301
Pt   25.609295   21.607009   21.559089
Pt   25.627915   21.611421   24.464062
Pt   25.598551   21.596861   27.246199
Pt   23.300338   23.336781   12.876227
Pt   23.310219   23.340263   15.707684
Pt   23.291605   23.304615   18.626571
Pt   23.294426   23.300849   21.577299
Pt   23.318779   23.326883   24.497496
Pt   23.313959   23.310375   27.329758
Pt   20.963435   24.983678   12.959438
Pt   20.965591   25.014273   15.739894
Pt   20.968534   24.992990   18.644341
Pt   20.971348   24.988651   21.568786
Pt   20.974146   25.000420   24.474322
Pt   20.977202   24.958352   27.254708
Pt   18.621661   23.342978   12.880240
Pt   18.616309   23.346475   15.711305
Pt   18.641146   23.310668   18.630066
Pt   18.644521   23.306475   21.580773
Pt   18.626307   23.332959   24.501334
Pt   18.636992   23.316901   27.333651
Pt   16.331876   21.635540   12.958903
Pt   16.303387   21.635606   15.740385
Pt   16.322558   21.621832   18.644540
Pt   16.325742   21.618981   21.566514
Pt   16.313413   21.623271   24.471952
Pt   16.348774   21.608480   27.253477
Pt   17.170251   18.903476   12.878161
Pt   17.171018   18.879679   15.711626
Pt   17.211828   18.877651   18.626639
Pt   17.214032   18.877744   21.568641
Pt   17.180526   18.868915   24.488080
Pt   17.190421   18.870266   27.321501
Pt   18.060272   16.207671   12.943822
Pt   18.079649   16.131187   15.747338
Pt   18.117749   16.125721   18.641731
Pt   18.113791   16.140232   21.526289
Pt   18.088506   16.129393   24.444588
Pt   18.095996   16.165771   27.236478
Pt   20.950219   16.137395   12.878474
Pt   20.952637   16.048130   15.733169
Pt   20.958973   16.062035   18.638625
Pt   20.969484   16.079214   21.531522
Pt   20.970353   16.057189   24.452088
Pt   20.966493   16.100548   27.296466
Pt   23.841016   16.199208   12.939824
Pt   23.827083   16.123153   15.745628
Pt   23.795691   16.110325   18.646317
Pt   23.806881   16.111864   21.532951
Pt   23.835563   16.104612   24.434959
Pt   23.832595   16.152905   27.226585
Pt   24.738882   18.892549   12.871025
Pt   24.743758   18.869308   15.704704
Pt   24.710040   18.865517   18.620727
Pt   24.715099   18.863209   21.563008
Pt   24.753785   18.855841   24.481197
Pt   24.749485   18.860461   27.316211
Pt   27.908428   22.374353   14.407945
Pt   27.945070   22.378015   17.208908
Pt   27.949767   22.372734   20.097197
Pt   27.951135   22.370281   22.985866
Pt   27.918491   22.355425   25.788212
Pt   25.632524   24.089170   14.313352
Pt   25.630264   24.094887   17.157077
Pt   25.593234   24.037561   20.101596
Pt   25.635505   24.086042   23.047062
Pt   25.642850   24.068892   25.891843
Pt   23.300464   25.783717   14.316826
Pt   23.317046   25.778568   17.160376
Pt   23.283212   25.719524   20.105807
Pt   23.322133   25.769204   23.052376
Pt   23.310912   25.764472   25.897158
Pt   20.967384   27.423531   14.419559
Pt   20.969622   27.456721   17.221258
Pt   20.972477   27.455790   20.110479
Pt   20.975297   27.447582   23.000254
Pt   20.977920   27.404938   25.802168
Pt   18.630195   25.789678   14.320274
Pt   18.618515   25.784086   17.163968
Pt   18.658317   25.724715   20.109405
Pt   18.624982   25.774690   23.056094
Pt   18.641845   25.770543   25.900947
Pt   16.292943   24.099265   14.320895
Pt   16.300701   24.105714   17.164427
Pt   16.343893   24.048532   20.108900
Pt   16.307880   24.097270   23.054681
Pt   16.306569   24.080605   25.899556
Pt   14.012319   22.388695   14.421083
Pt   13.981128   22.393598   17.222238
Pt   13.981937   22.388507   20.109904
Pt   13.988057   22.386223   22.998317
Pt   14.027045   22.371134   25.800078
Pt   14.844914   19.664472   14.320633
Pt   14.850586   19.639270   17.162834
Pt   14.918455   19.645632   20.103399
Pt   14.857208   19.632460   23.046424
Pt   14.862408   19.642280   25.890157
Pt   15.721062   16.930797   14.320458
Pt   15.734848   16.915915   17.161546
Pt   15.805808   16.917203   20.092123
Pt   15.739143   16.913953   23.032768
Pt   15.743947   16.903254   25.878659
Pt   16.599007   14.240851   14.394386
Pt   16.648740   14.172793   17.227645
Pt   16.677409   14.109534   20.082785
Pt   16.650750   14.184454   22.944045
Pt   16.642817   14.202396   25.780942
Pt   19.446547   14.187951   14.271083
Pt   19.517511   14.029699   17.192259
Pt   19.509357   14.056608   20.095216
Pt   19.519759   14.095815   22.979309
Pt   19.488044   14.138343   25.875847
Pt   22.449909   14.186092   14.269376
Pt   22.384660   14.028190   17.193046
Pt   22.397699   14.037980   20.104507
Pt   22.401032   14.025896   22.985405
Pt   22.422647   14.129564   25.868556
Pt   25.298282   14.228969   14.388479
Pt   25.257076   14.161768   17.223336
Pt   25.237593   14.092753   20.081316
Pt   25.270640   14.152867   22.944588
Pt   25.308270   14.213310   25.785267
Pt   26.184384   16.916707   14.311173
Pt   26.175699   16.901467   17.154200
Pt   26.110289   16.899461   20.086843
Pt   26.182418   16.893472   23.024488
Pt   26.188850   16.896147   25.869074
Pt   27.068379   19.649730   14.308480
Pt   27.067317   19.624030   17.151009
Pt   27.005956   19.629722   20.092001
Pt   27.073502   19.616437   23.034899
Pt   27.077085   19.629412   25.879059
Pt   30.191573   23.112413   15.912861
Pt   30.331318   23.151468   18.688664
Pt   30.334256   23.147474   21.504902
Pt   30.199239   23.099553   24.281757
Pt   27.953084   24.842117   15.761594
Pt   27.927531   24.823606   18.667093
Pt   27.930227   24.819286   21.535394
Pt   27.960291   24.827915   24.442463
Pt   25.639488   26.544461   15.769949
Pt   25.633037   26.526752   18.669469
Pt   25.635584   26.521845   21.542142
Pt   25.646788   26.529727   24.442192
Pt   23.306129   28.220887   15.768163
Pt   23.305921   28.185599   18.675201
Pt   23.308817   28.180740   21.544809
Pt   23.314461   28.206364   24.452274
Pt   20.970724   29.820892   15.928720
Pt   20.973524   29.963088   18.705471
Pt   20.977132   29.958504   21.523839
Pt   20.979303   29.807371   24.300523
Pt   18.632023   28.225921   15.771697
Pt   18.637435   28.190568   18.679029
Pt   18.640795   28.185981   21.548622
Pt   18.640672   28.212027   24.455834
Pt   16.294869   26.554010   15.776861
Pt   16.306694   26.536624   18.677050
Pt   16.310300   26.532739   21.549597
Pt   16.304526   26.541216   24.449758
Pt   13.976294   24.856233   15.773176
Pt   14.007849   24.838735   18.679234
Pt   14.011833   24.834954   21.547424
Pt   13.987658   24.843813   24.454423
Pt   11.732777   23.131567   15.931450
Pt   11.598644   23.171886   18.707211
Pt   11.602526   23.167708   21.523078
Pt   11.744244   23.119195   24.298969
Pt   12.525607   20.415494   15.773070
Pt   12.563704   20.399002   18.675942
Pt   12.568241   20.394857   21.542586
Pt   12.540372   20.401262   24.448203
Pt   13.385311   17.685012   15.779721
Pt   13.417363   17.670818   18.670247
Pt   13.422247   17.666990   21.534984
Pt   13.403208   17.666764   24.431190
Pt   14.257271   14.975970   15.770414
Pt   14.321001   14.960728   18.664383
Pt   14.326270   14.959425   21.519801
Pt   14.286061   14.953090   24.426745
Pt   15.166830   12.378502   15.902844
Pt   15.168500   12.228187   18.665574
Pt   15.193667   12.221849   21.504054
Pt   15.222219   12.349589   24.269232
Pt   17.989457   12.245483   15.736913
Pt   18.035996   12.103276   18.635867
Pt   18.042623   12.160865   21.553836
Pt   18.028169   12.271613   24.375053
Pt   20.947984   12.259101   15.555399
Pt   22.311496   10.503201   17.047921
Pt   20.903671   12.084480   21.582042
Pt   20.914679   12.215201   24.476258
Pt   23.902910   12.238860   15.730432
Pt   23.868577   12.096236   18.613338
Pt   22.424585   10.526657   23.098359
Pt   23.926900   12.230079   24.450600
Pt   26.725882   12.361005   15.895377
Pt   26.741427   12.215737   18.660694
Pt   26.751556   12.214446   21.500441
Pt   26.747864   12.355263   24.268465
Pt   27.643138   14.957469   15.758113
Pt   27.589989   14.943649   18.654287
Pt   27.594073   14.942160   21.511320
Pt   27.654286   14.948346   24.411791
Pt   28.522973   17.665290   15.764989
Pt   28.497410   17.651722   18.655996
Pt   28.499413   17.649489   21.520937
Pt   28.529691   17.653652   24.414091
Pt   29.390010   20.395792   15.755867
Pt   29.357857   20.379094   18.659215
Pt   29.360623   20.375764   21.525764
Pt   29.397401   20.383522   24.430819
Pt   30.119980   25.518620   17.290748
Pt   30.160674   25.586230   20.100596
Pt   30.124543   25.509253   22.911745
Pt   27.889447   27.204226   17.271289
Pt   27.939275   27.274313   20.105420
Pt   27.894586   27.194275   22.939937
Pt   25.576933   28.885054   17.274021
Pt   25.636799   28.948431   20.109475
Pt   25.582663   28.875410   22.944711
Pt   23.286569   30.487393   17.301856
Pt   23.346615   30.541426   20.113651
Pt   23.292755   30.477880   22.925710
Pt   18.658702   30.492008   17.305600
Pt   18.605580   30.546507   20.117854
Pt   18.665356   30.483379   22.929235
Pt   16.364962   28.893900   17.281509
Pt   16.311240   28.958496   20.117153
Pt   16.371025   28.886337   22.951828
Pt   14.048678   27.217682   17.282135
Pt   14.004765   27.289397   20.116914
Pt   14.055287   27.210086   22.951384
Pt   11.814120   25.537807   17.307238
Pt   11.779607   25.606134   20.117864
Pt   11.821764   25.529309   22.928256
Pt   10.377723   21.138949   17.306813
Pt   10.311743   21.093660   20.114262
Pt   10.388735   21.128993   22.923145
Pt   11.180328   18.463670   17.283556
Pt   11.112385   18.417698   20.109472
Pt   11.195739   18.452558   22.937538
Pt   12.044322   15.749573   17.288501
Pt   11.987937   15.702644   20.103282
Pt   12.067404   15.734610   22.921405
Pt   12.948016   13.094607   17.306659
Pt   12.933519   13.040267   20.098625
Pt   12.986220   13.077733   22.889946
Pt   19.578071   10.510879   17.053609
Pt   20.951269   12.078821   18.733684
Pt   23.877516   12.097129   21.523404
Pt   28.953758   13.074762   17.286035
Pt   28.991992   13.027980   20.077082
Pt   28.966945   13.072841   22.869365
Pt   29.862926   15.727527   17.269462
Pt   29.931049   15.685566   20.083427
Pt   29.869812   15.723091   22.898556
Pt   30.732201   18.440126   17.262693
Pt   30.808682   18.396134   20.088365
Pt   30.736794   18.433487   22.914827
Pt   31.541710   21.114702   17.284629
Pt   31.615160   21.070148   20.091790
Pt   31.546685   21.106973   22.900035
