309
Generated with con2xyz
Pt   23.635283   21.395909   11.661745
Pt   21.251682   20.678233   12.924210
Pt   21.136259   20.565147   15.796317
Pt   20.940078   22.744947   23.110166
Pt   23.539973   16.183571   24.428365
Pt   20.791502   20.235899   24.433305
Pt   22.948827   20.744035   28.805957
Pt   20.567040   20.025183   30.001938
Pt   23.704260   23.808723   13.120369
Pt   23.562858   21.307368   14.442966
Pt   24.738881   19.107913   18.745912
Pt   23.469268   23.591872   18.867447
Pt   23.198427   20.971904   23.135907
Pt   23.098066   20.866977   26.028930
Pt   20.676829   20.129595   27.306455
Pt   21.357813   20.778989   10.229456
Pt   21.287394   23.087487   14.423134
Pt   21.022408   20.457778   18.673266
Pt   20.907588   20.348659   21.559241
Pt   21.092424   25.252604   21.755322
Pt   20.826062   22.646788   26.002439
Pt   20.709484   22.497796   28.780694
Pt   19.032232   21.565605   11.486230
Pt   18.886411   21.475258   14.264586
Pt   18.784615   21.352806   17.157679
Pt   18.666517   21.244491   20.055735
Pt   18.570105   23.555045   24.530843
Pt   18.424917   21.030095   25.849300
Pt   18.347426   20.911260   28.629447
Pt   19.811276   18.825985   11.423199
Pt   21.115952   16.716401   12.753519
Pt   19.571987   18.576475   17.099980
Pt   20.879886   16.483369   18.515956
Pt   20.651015   16.241706   24.327441
Pt   16.858371   19.044641   27.125890
Pt   19.218053   18.242987   25.760041
Pt   22.662509   18.723786   11.521874
Pt   22.573088   18.586241   14.301760
Pt   22.444208   18.479776   17.198684
Pt   20.761619   16.355443   21.399501
Pt   22.210420   18.252751   22.985694
Pt   22.108092   18.142388   25.883728
Pt   19.129009   18.170102   28.543372
Pt   25.929326   22.007028   13.218569
Pt   25.851206   21.925046   16.003355
Pt   25.600828   21.709281   21.810461
Pt   23.319790   21.084005   20.237053
Pt   25.500608   21.596237   24.709368
Pt   25.355552   21.466377   27.489327
Pt   26.006051   24.413431   14.665485
Pt   26.042860   26.802052   16.184660
Pt   25.719160   21.818833   18.902913
Pt   23.348423   23.484954   21.799417
Pt   23.255049   23.395668   24.708982
Pt   23.127472   23.262720   27.544054
Pt   21.393368   23.151040   11.641387
Pt   25.930954   26.754217   19.123745
Pt   18.864381   28.509655   21.769053
Pt   21.057347   22.855289   20.213197
Pt   20.976968   25.146279   24.654339
Pt   20.850737   24.993621   27.438207
Pt   19.034044   23.983933   12.946039
Pt   18.918049   23.898339   15.777289
Pt   18.824645   23.759829   18.683988
Pt   18.709172   23.651554   21.613149
Pt   16.219301   24.338955   25.871907
Pt   18.459277   23.432870   27.362396
Pt   16.686263   22.358766   12.858071
Pt   17.302360   19.478420   15.550309
Pt   16.448344   22.152151   18.539140
Pt   16.333498   22.040305   21.457227
Pt   18.554534   21.132058   22.952493
Pt   16.119557   21.820072   27.139006
Pt   17.430461   19.595948   12.720453
Pt   13.512059   18.431126   15.392815
Pt   14.971590   20.282414   16.923378
Pt   14.921850   20.179673   19.868383
Pt   16.955839   19.144375   24.293162
Pt   14.627527   19.965870   25.651714
Pt   18.240186   16.857849   12.740749
Pt   16.691808   14.923492   14.107754
Pt   17.871041   16.452099   21.276864
Pt   19.345123   18.353946   22.860786
Pt   19.272955   14.463601   19.806331
Pt   17.676776   16.308285   26.957642
Pt   19.423984   14.626902   16.932476
Pt   19.677750   18.685617   14.202427
Pt   22.329938   18.369268   20.095572
Pt   23.627485   16.280455   21.512812
Pt   19.069476   14.297818   25.596718
Pt   20.538120   16.160534   27.162148
Pt   23.980368   16.654269   12.936890
Pt   22.307043   14.493613   17.007581
Pt   22.175538   14.382786   19.910852
Pt   25.212364   14.452886   17.156813
Pt   23.411814   16.111651   27.211382
Pt   21.975335   18.068450   28.664089
Pt   24.992818   19.320652   13.004351
Pt   24.889886   19.211344   15.834721
Pt   23.746046   16.396047   18.622206
Pt   24.620041   18.994419   21.682602
Pt   24.538305   18.878898   24.593958
Pt   24.413863   18.772374   27.423250
Pt   28.220592   22.620590   14.790179
Pt   30.369008   25.527699   20.688985
Pt   28.027327   22.428317   20.477197
Pt   27.909056   22.315552   23.363120
Pt   27.762646   22.190802   26.159404
Pt   28.142340   22.533658   17.590466
Pt   23.431814   21.192448   17.335725
Pt   21.505763   30.209245   16.293664
Pt   25.653734   24.130236   23.384256
Pt   25.541520   23.976942   26.239156
Pt   21.416843   25.535219   13.175695
Pt   25.707757   28.845401   23.601438
Pt   25.945995   29.067520   17.667101
Pt   23.554669   28.369726   21.945555
Pt   23.261482   25.760504   26.212653
Pt   16.613308   27.057184   18.762148
Pt   21.172392   22.960945   17.311561
Pt   21.321226   25.474702   15.962769
Pt   21.126583   27.648519   23.279105
Pt   20.977600   27.486870   26.091646
Pt   19.064455   26.385071   14.480642
Pt   21.215168   25.348735   18.858080
Pt   18.968941   28.746792   18.864692
Pt   18.715368   26.048455   23.179067
Pt   18.603572   25.931834   26.022995
Pt   14.331686   25.562910   15.697244
Pt   16.546213   22.270095   15.638462
Pt   16.500179   24.523954   20.094076
Pt   16.340929   24.459487   23.032701
Pt   13.889770   22.726787   25.625974
Pt   16.575607   24.686663   17.155324
Pt   14.195664   23.061816   17.053688
Pt   14.082825   22.954113   19.940390
Pt   14.739574   20.058244   22.807704
Pt   16.199702   21.937231   24.358593
Pt   15.082437   20.404674   14.082299
Pt   12.733349   21.191543   15.474398
Pt   13.967931   22.844718   22.826160
Pt   17.101802   19.244995   21.379116
Pt   17.768195   16.384957   24.158299
Pt   17.981629   16.569251   18.413861
Pt   19.452734   18.461305   19.983389
Pt   20.871801   12.710593   15.451859
Pt   15.645468   17.328625   19.788169
Pt   15.515227   17.262299   22.682049
Pt   15.859516   17.612402   14.029415
Pt   19.175954   14.392978   22.724344
Pt   19.142291   10.563840   22.532902
Pt   20.518453   12.351354   24.171691
Pt   17.869088   12.656693   18.238144
Pt   19.541036   14.743295   14.044464
Pt   18.110268   16.711943   15.535130
Pt   21.003646   16.580725   15.587462
Pt   16.269826   14.464191   22.563557
Pt   21.990229   14.202200   25.726414
Pt   22.445166   14.637037   14.154392
Pt   25.090379   14.316089   20.047746
Pt   23.341969   8.635395   21.162463
Pt   22.086659   14.285125   22.876430
Pt   24.860473   14.159734   25.750426
Pt   27.634356   15.176981   15.834922
Pt   23.773556   12.576915   15.560350
Pt   24.992474   14.238685   22.947929
Pt   23.569654   12.372866   21.405253
Pt   26.272373   12.234637   24.221068
Pt   26.202799   17.142460   17.259108
Pt   23.882856   16.511748   15.718199
Pt   26.022095   17.044379   20.191661
Pt   25.970408   16.920679   23.126712
Pt   25.850826   16.806656   25.968141
Pt   29.829168   15.829195   17.460098
Pt   27.290194   19.941945   14.561237
Pt   26.997807   19.733560   20.333890
Pt   26.942019   19.604463   23.269413
Pt   26.826163   19.504852   26.108816
Pt   28.297256   25.033465   16.229348
Pt   30.467813   23.226593   16.412608
Pt   31.472548   20.924963   23.375091
Pt   30.130198   22.909693   24.774360
Pt   28.237538   27.341368   17.817231
Pt   28.145818   24.919926   19.133926
Pt   30.381586   23.052303   22.010568
Pt   28.009334   27.125552   23.507687
Pt   23.605582   23.725084   15.958701
Pt   28.235639   27.236221   20.666782
Pt   25.690765   26.474518   24.912064
Pt   21.125464   29.945426   24.699100
Pt   21.417834   27.924312   14.715543
Pt   30.414643   25.583929   17.873572
Pt   25.816823   26.646775   21.978041
Pt   21.328317   30.295201   19.072042
Pt   23.383225   28.257976   24.891304
Pt   23.545303   30.769382   20.591768
Pt   23.665783   28.474538   19.094009
Pt   21.235871   30.205872   21.926895
Pt   23.653566   26.119232   17.504242
Pt   18.960465   30.919739   20.541458
Pt   16.731604   29.389673   17.426055
Pt   18.741759   28.420340   24.676955
Pt   14.417126   27.865927   17.295020
Pt   18.874694   26.148785   20.224872
Pt   16.486267   26.946275   21.623401
Pt   16.359304   26.849286   24.513163
Pt   16.677733   24.770815   14.309861
Pt   14.249364   25.446871   18.603869
Pt   14.133522   25.340637   21.467721
Pt   13.990324   25.246020   24.368261
Pt   14.337140   23.149472   14.254157
Pt   11.783042   23.870889   18.474584
Pt   11.672126   23.768343   21.286751
Pt   11.698640   23.614267   24.062998
Pt   12.025010   23.921839   15.702626
Pt   17.216675   19.358181   18.466505
Pt   11.050794   19.028755   22.512098
Pt   12.395909   20.867147   24.144937
Pt   11.267737   19.241077   16.857140
Pt   12.654346   21.076154   18.377897
Pt   13.321873   18.214771   21.168490
Pt   12.542578   20.968492   21.241923
Pt   14.323068   15.734665   15.411141
Pt   15.742420   17.484989   16.894213
Pt   11.905176   16.426177   19.609774
Pt   16.259523   14.483483   25.319921
Pt   14.149747   15.519035   18.227605
Pt   23.453654   8.732533   18.385601
Pt   16.492496   14.683967   16.861123
Pt   15.407773   17.167694   25.550258
Pt   18.045981   12.912286   15.422840
Pt   22.230199   10.648054   16.865985
Pt   20.608788   12.462773   21.280291
Pt   17.711740   12.494941   23.959078
Pt   25.024146   10.578802   17.057656
Pt   22.096286   10.634605   19.801402
Pt   21.971674   10.427893   22.732467
Pt   24.998383   10.404415   19.901379
Pt   20.669710   12.487949   18.255794
Pt   25.304653   14.587207   14.357012
Pt   19.170529   10.623187   19.706605
Pt   23.445769   12.257187   24.279691
Pt   28.840183   13.230120   17.332594
Pt   26.594664   12.550020   15.839308
Pt   28.805303   13.102314   20.149658
Pt   24.799414   10.369240   22.738271
Pt   26.308572   17.242731   14.418188
Pt   27.497159   15.083396   18.737935
Pt   26.474902   12.225666   21.455960
Pt   27.297736   14.850516   24.508309
Pt   28.615560   17.859201   15.990180
Pt   29.581468   20.552185   16.124143
Pt   28.371510   17.646190   21.744497
Pt   30.570707   18.289632   23.257008
Pt   31.697620   21.136613   17.760898
Pt   30.494873   23.159323   19.190142
Pt   30.763049   18.360865   20.431588
Pt   29.232991   20.224802   24.786457
Pt   28.030681   24.810963   22.009714
Pt   27.947271   24.705507   24.916919
Pt   25.730812   24.211851   20.452604
Pt   30.188839   25.370351   23.495777
Pt   25.890415   24.349754   17.524279
Pt   23.417335   25.904669   23.355903
Pt   23.741360   28.577764   16.149426
Pt   23.496071   25.971643   20.427846
Pt   21.233672   27.788900   20.390767
Pt   23.721625   26.193149   14.641202
Pt   21.346709   27.855016   17.541399
Pt   23.512763   30.573617   23.432052
Pt   19.097810   28.743611   16.045812
Pt   16.631620   29.424712   20.272907
Pt   18.884657   30.758233   23.278770
Pt   18.948260   26.299431   17.328486
Pt   16.709433   27.169792   15.843088
Pt   16.557741   29.246688   23.106269
Pt   23.710667   30.792148   17.787995
Pt   14.272515   27.843630   20.128691
Pt   14.196920   27.662721   22.956229
Pt   12.132718   26.268802   17.171170
Pt   11.991790   26.246006   19.979162
Pt   11.913174   26.067502   22.784897
Pt   11.080041   19.102717   19.679633
Pt   10.368303   21.797476   19.752679
Pt   10.333232   21.727090   22.562481
Pt   10.549722   21.935893   16.951463
Pt   11.859376   16.351116   22.430544
Pt   13.175202   18.100543   24.078009
Pt   12.075831   16.564778   16.795597
Pt   14.040360   15.408339   21.085767
Pt   13.994683   15.405652   23.914955
Pt   13.433789   18.323436   18.302844
Pt   16.392308   14.557119   19.706250
Pt   17.731646   12.514732   21.134594
Pt   20.749888   8.857792   18.337758
Pt   20.593425   8.732857   21.057780
Pt   23.675062   12.475104   18.436321
Pt   26.583061   12.331913   18.604250
Pt   27.387339   14.976321   21.601603
Pt   28.623831   13.020179   22.964294
Pt   30.795228   18.501927   17.603240
Pt   29.801905   15.696524   20.289369
Pt   29.609417   15.618289   23.115177
Pt   28.484513   17.753881   18.881087
Pt   27.177796   19.826386   17.400245
Pt   28.271429   17.532900   24.636183
Pt   29.434258   20.440439   19.022874
Pt   31.656920   20.994516   20.569059
Pt   29.319763   20.332692   21.885635
