309
Generated with con2xyz
Pt   22.426956   18.486732   10.538224
Pt   22.387841   18.567931   13.236092
Pt   22.350223   18.655118   16.110710
Pt   22.313251   18.746157   18.994335
Pt   22.268382   18.833644   21.885560
Pt   22.247874   18.913011   24.764822
Pt   22.225925   18.990296   27.637301
Pt   22.196780   19.061263   30.336786
Pt   24.669952   19.396542   11.864283
Pt   24.666141   19.492729   14.648421
Pt   24.616127   19.573197   17.549510
Pt   24.588658   19.663528   20.464107
Pt   24.549350   19.743259   23.334724
Pt   24.544112   19.832050   26.224787
Pt   24.466795   19.897256   29.012055
Pt   22.272138   20.944306   11.782070
Pt   22.223960   21.067983   14.563801
Pt   22.187274   21.139548   17.461264
Pt   22.151976   21.231331   20.366575
Pt   22.117486   21.314390   23.267801
Pt   22.089006   21.405380   26.166913
Pt   22.055330   21.442126   28.954448
Pt   20.064343   19.143333   11.807610
Pt   19.984924   19.240422   14.590011
Pt   19.961526   19.321949   17.483166
Pt   19.918200   19.411235   20.386386
Pt   19.887538   19.497214   23.292718
Pt   19.849599   19.575238   26.193709
Pt   19.860776   19.635792   28.975723
Pt   21.096895   16.488819   11.896868
Pt   21.038480   16.539878   14.679624
Pt   21.011885   16.640799   17.576729
Pt   20.972176   16.726692   20.479781
Pt   20.944724   16.814022   23.383408
Pt   20.911018   16.884411   26.283732
Pt   20.900800   16.991208   29.065249
Pt   23.944743   16.651868   11.937666
Pt   23.932150   16.705579   14.722587
Pt   23.886344   16.805395   17.620150
Pt   23.849895   16.901815   20.526177
Pt   23.826034   16.985517   23.404588
Pt   23.813029   17.052432   26.292513
Pt   23.750850   17.155808   29.078219
Pt   26.920998   20.319433   13.307752
Pt   26.918477   20.412021   16.095054
Pt   26.859084   20.493094   19.016109
Pt   26.900915   20.556614   21.928124
Pt   26.834220   20.666056   24.749467
Pt   26.750623   20.754710   27.583224
Pt   24.543197   21.902871   13.150356
Pt   24.505972   21.997575   15.985972
Pt   24.457538   22.058920   18.909598
Pt   24.433843   22.140890   21.842274
Pt   24.407818   22.257247   24.748806
Pt   24.348619   22.324951   27.589135
Pt   22.132059   23.425319   13.146911
Pt   22.071201   23.546684   15.933693
Pt   22.027100   23.616535   18.835045
Pt   21.991157   23.702224   21.746157
Pt   21.961697   23.798577   24.656552
Pt   21.924704   23.838966   27.447586
Pt   19.874780   21.646455   13.093861
Pt   19.810834   21.754894   15.933512
Pt   19.792006   21.811134   18.843024
Pt   19.753276   21.901093   21.776429
Pt   19.710860   22.000529   24.705341
Pt   19.691157   22.061097   27.544587
Pt   17.681341   19.797404   13.197612
Pt   17.603031   19.909714   15.984936
Pt   17.579603   19.994735   18.880238
Pt   17.541378   20.082928   21.790367
Pt   17.499818   20.150521   24.704412
Pt   17.506784   20.206291   27.491513
Pt   18.682374   17.123452   13.212044
Pt   18.630608   17.204373   16.047299
Pt   18.622939   17.301647   18.962766
Pt   18.589407   17.390778   21.903147
Pt   18.529456   17.460706   24.821760
Pt   18.511023   17.540820   27.655633
Pt   19.757971   14.479845   13.381097
Pt   19.704723   14.527212   16.167547
Pt   19.682641   14.623615   19.067253
Pt   19.649173   14.709871   21.978786
Pt   19.611840   14.793915   24.886417
Pt   19.596682   14.903735   27.672512
Pt   22.618535   14.600890   13.340907
Pt   22.580325   14.668993   16.178806
Pt   22.540254   14.783652   19.097032
Pt   22.513327   14.873709   22.018060
Pt   22.487759   14.934902   24.930445
Pt   22.455943   15.029142   27.765001
Pt   25.475112   14.812678   13.455075
Pt   25.464489   14.870592   16.241259
Pt   25.411177   14.977887   19.156976
Pt   25.409672   15.083443   22.032497
Pt   25.383796   15.135419   24.914634
Pt   25.310205   15.228090   27.708315
Pt   26.243737   17.550083   13.317942
Pt   26.228956   17.629519   16.157915
Pt   26.159121   17.725977   19.090130
Pt   26.191869   17.813717   21.992791
Pt   26.165516   17.887886   24.845408
Pt   26.091310   17.967021   27.700914
Pt   29.172927   21.244296   14.750111
Pt   29.158510   21.327876   17.585788
Pt   29.157626   21.399225   20.462445
Pt   29.224944   21.501945   23.363146
Pt   28.858549   23.995656   24.688519
Pt   26.797650   22.825116   14.592432
Pt   26.753790   22.918770   17.442156
Pt   26.725081   22.955166   20.403346
Pt   26.730926   23.076260   23.286724
Pt   26.639552   23.184803   26.160701
Pt   24.393171   24.391897   14.516920
Pt   24.356487   24.475680   17.358352
Pt   24.289704   24.502382   20.299921
Pt   24.284381   24.639434   23.236947
Pt   24.213366   24.732056   26.089838
Pt   21.994962   25.908005   14.528779
Pt   21.926200   26.030000   17.335486
Pt   21.878161   26.114543   20.216435
Pt   21.846226   26.192515   23.107700
Pt   21.808054   26.238714   25.916660
Pt   19.748244   24.135705   14.440826
Pt   19.653445   24.232437   17.309999
Pt   19.637927   24.269618   20.228624
Pt   19.592753   24.392071   23.187030
Pt   19.577707   24.467519   26.043724
Pt   17.485214   22.295120   14.470247
Pt   17.416838   22.441354   17.332385
Pt   17.415884   22.482221   20.242917
Pt   17.365511   22.580983   23.212599
Pt   17.339797   22.626585   26.071644
Pt   15.293165   20.422899   14.590431
Pt   15.218101   20.573100   17.411653
Pt   15.176598   20.669851   20.280019
Pt   15.151057   20.719781   23.184386
Pt   15.155638   20.766998   25.997413
Pt   16.297191   17.780917   14.601841
Pt   16.256077   17.865755   17.445687
Pt   16.278027   17.975020   20.385780
Pt   16.185965   18.032496   23.326490
Pt   16.154718   18.116628   26.171943
Pt   17.343514   15.105764   14.695007
Pt   17.296721   15.188920   17.543551
Pt   17.317872   15.292836   20.479939
Pt   17.229528   15.364267   23.414726
Pt   17.204827   15.444075   26.260330
Pt   18.419148   12.475887   14.868350
Pt   18.370972   12.507593   17.680517
Pt   18.363264   12.594414   20.556427
Pt   18.318162   12.699303   23.481886
Pt   18.294030   12.828067   26.282371
Pt   21.277549   12.588206   14.817864
Pt   21.246036   12.644359   17.673918
Pt   21.208956   12.764402   20.602906
Pt   21.180744   12.821367   23.523455
Pt   21.146074   12.930268   26.376631
Pt   24.157184   12.761801   14.851153
Pt   24.105360   12.834691   17.699402
Pt   24.075114   12.977212   20.636068
Pt   24.036814   13.009411   23.558872
Pt   24.010751   13.096684   26.395323
Pt   27.014349   12.976666   14.977188
Pt   26.993273   13.053549   17.806475
Pt   27.029230   13.145204   20.658516
Pt   26.914149   13.224429   23.502437
Pt   26.840476   13.282639   26.352207
Pt   27.788904   15.698235   14.837662
Pt   27.768768   15.794030   17.727752
Pt   27.778228   15.870366   20.600511
Pt   27.816853   15.997757   23.494650
Pt   27.613087   16.019607   26.322245
Pt   28.516226   18.480581   14.759176
Pt   28.487877   18.552765   17.647681
Pt   28.486320   18.629938   20.519337
Pt   28.550301   18.739248   23.432203
Pt   28.283381   18.880918   26.267351
Pt   31.172151   24.555494   17.547723
Pt   31.311609   22.172114   16.224566
Pt   29.046767   14.035213   24.947769
Pt   29.079558   23.923021   21.885833
Pt   29.035872   23.757462   16.037059
Pt   28.990185   23.807098   18.961255
Pt   26.480693   27.839183   20.239817
Pt   28.683301   26.326094   23.159881
Pt   26.659961   25.327944   15.979037
Pt   26.365113   27.868847   23.062722
Pt   24.110951   29.317468   20.166687
Pt   26.520934   25.573798   24.648111
Pt   24.256603   26.873611   15.896085
Pt   24.159993   26.999573   21.660151
Pt   23.995466   29.340543   22.970187
Pt   24.108784   27.121203   24.564453
Pt   24.103603   29.184402   17.359598
Pt   19.389887   29.073866   20.095221
Pt   21.739896   28.650666   21.557828
Pt   21.698404   28.589068   24.336180
Pt   21.856534   28.350797   15.961433
Pt   19.521203   26.679545   18.729514
Pt   19.493580   26.754205   21.604249
Pt   19.458731   26.865131   24.518783
Pt   17.386285   24.790405   15.801492
Pt   17.230049   24.944939   18.738728
Pt   17.261706   24.966609   21.649964
Pt   17.235113   25.041827   24.570217
Pt   15.094011   22.897205   15.828948
Pt   15.036851   23.108738   18.767508
Pt   15.043086   23.119031   21.669894
Pt   14.995257   23.184458   24.599792
Pt   12.942413   21.054737   16.041741
Pt   12.778988   21.219499   18.830334
Pt   12.742383   21.302122   21.663557
Pt   12.847836   21.332426   24.446016
Pt   13.911661   18.426148   16.007824
Pt   13.910182   18.528304   18.905789
Pt   13.876349   18.611416   21.769354
Pt   12.602815   16.621382   23.209450
Pt   14.946160   15.764634   16.104090
Pt   14.927929   15.854509   18.998796
Pt   14.891151   15.937397   21.865257
Pt   14.839144   16.014904   24.758723
Pt   16.000826   13.106085   16.185656
Pt   15.975768   13.190858   19.097095
Pt   15.934544   13.283705   21.961093
Pt   15.889441   13.364276   24.849618
Pt   18.659293   8.677921   17.764813
Pt   16.932178   10.474792   19.128235
Pt   17.002884   10.642465   22.062088
Pt   16.963738   10.777582   24.917843
Pt   19.942929   10.589216   16.289300
Pt   19.922394   10.626569   19.195335
Pt   19.892910   10.692506   22.097944
Pt   19.853130   10.853331   24.990767
Pt   22.821588   10.733660   16.341818
Pt   21.408595   8.926054   23.576223
Pt   22.750527   10.894337   22.120258
Pt   22.705901   10.970123   24.993715
Pt   25.679732   10.921747   16.366282
Pt   25.648101   11.043592   19.271679
Pt   27.165321   9.251042   17.968424
Pt   17.191050   6.956336   22.251421
Pt   28.530267   11.217016   19.312565
Pt   28.481844   11.292950   22.152893
Pt   25.549870   11.149108   25.021663
Pt   24.366238   9.011790   17.911914
Pt   29.220199   13.887433   16.401208
Pt   29.294825   13.962042   19.223782
Pt   29.250918   14.053017   22.117528
Pt   28.298525   11.387674   24.909294
Pt   29.949905   16.659885   16.306562
Pt   30.034123   16.712146   19.130030
Pt   29.986414   16.831738   21.933641
Pt   31.347410   22.306251   21.729398
Pt   30.666885   19.439248   16.242135
Pt   30.734013   19.475050   19.063880
Pt   30.685286   19.592293   21.868469
Pt   28.919227   21.634134   26.118097
Pt   28.873316   26.260393   20.333641
Pt   31.433387   22.220396   18.986386
Pt   28.854391   26.145261   17.498182
Pt   26.581325   25.453627   21.734157
Pt   26.613687   25.387833   18.872015
Pt   31.200691   24.629828   20.286351
Pt   26.466790   27.705385   17.414237
Pt   24.205865   26.922258   18.797077
Pt   21.797229   28.570644   18.739175
Pt   19.503775   28.936094   17.279105
Pt   17.142883   27.403603   20.136404
Pt   19.372236   29.082710   22.912232
Pt   19.610000   26.618148   15.812183
Pt   17.263116   27.246321   17.212754
Pt   14.889218   25.574887   20.289012
Pt   15.010803   25.370138   17.077056
Pt   12.843992   25.883049   18.576284
Pt   17.177597   27.341521   22.995994
Pt   12.808271   23.525463   17.290118
Pt   14.947012   27.613364   18.544027
Pt   12.816377   23.702279   23.029317
Pt   12.729279   23.705936   20.188835
Pt   14.965602   25.506945   23.099756
Pt   11.631963   19.232894   23.102792
Pt   11.692050   19.064858   17.494768
Pt   11.597072   19.122286   20.296214
Pt   13.806684   18.684254   24.675255
Pt   12.668507   16.455150   17.561460
Pt   12.561503   16.504944   20.384484
Pt   13.596277   13.854551   20.477540
Pt   13.701155   13.809657   17.648297
Pt   14.628728   11.216325   20.565904
Pt   13.635989   13.968216   23.303887
Pt   17.085518   10.523999   16.366291
Pt   18.528124   8.812882   23.656968
Pt   14.667700   11.327450   23.398898
Pt   18.450912   8.688447   20.616187
Pt   14.727408   11.241935   17.715343
Pt   15.704728   8.765935   23.549470
Pt   21.493545   8.779693   17.836827
Pt   27.073022   9.378123   23.547081
Pt   15.626485   8.649928   20.846436
Pt   22.789541   10.812730   19.232939
Pt   20.101081   7.002375   19.334534
Pt   24.277305   9.149421   23.558690
Pt   28.441174   11.190033   16.546933
Pt   21.543306   8.765484   20.731561
Pt   19.952494   7.044220   22.126998
Pt   27.176493   9.276653   20.762797
Pt   24.382171   9.004440   20.739847
Pt   25.608583   11.117699   22.127858
