309
Generated with con2xyz
Pt   10.328076   16.242586   20.203215
Pt   12.220201   14.216417   20.204965
Pt   12.142690   16.145110   18.157758
Pt   12.136106   16.138718   22.255159
Pt   10.336566   20.213800   16.250608
Pt   12.144433   18.161465   16.147226
Pt   12.225221   20.214881   14.223044
Pt   10.267347   18.221123   18.220133
Pt   10.260285   22.192351   22.197033
Pt   12.184074   18.187650   20.211380
Pt   12.188480   20.208735   18.198645
Pt   10.256369   18.215705   22.189888
Pt   10.317981   20.200756   24.165558
Pt   12.129419   18.147310   24.265339
Pt   12.180436   20.202545   22.229439
Pt   12.205372   20.192506   26.190982
Pt   12.147969   22.262907   16.153999
Pt   10.271897   22.199714   18.228007
Pt   10.186187   20.207156   20.207979
Pt   10.336701   24.171069   20.219087
Pt   12.150688   24.272345   18.173325
Pt   12.189324   22.223313   20.219531
Pt   12.133215   22.250010   24.273878
Pt   12.146755   24.263722   22.272282
Pt   12.233925   26.192253   20.229969
Pt   14.208322   12.226157   20.204162
Pt   16.231166   10.331792   20.200324
Pt   16.133034   12.147197   18.154136
Pt   16.134532   12.138601   22.253851
Pt   14.130632   16.136434   16.134821
Pt   16.123602   14.138994   16.132227
Pt   16.123336   16.136514   14.134290
Pt   14.126884   14.134667   18.164569
Pt   14.132955   16.134544   20.212009
Pt   16.130170   14.134952   20.209658
Pt   16.123906   16.129237   18.151322
Pt   14.125679   14.127939   22.248675
Pt   14.127588   16.122167   24.277216
Pt   16.128232   14.123436   24.276975
Pt   16.127380   16.124152   22.273991
Pt   16.129322   16.114489   26.267961
Pt   14.210679   20.215950   12.230656
Pt   16.133913   18.163038   12.144956
Pt   16.235830   20.217525   10.338758
Pt   14.127258   18.169744   14.134197
Pt   14.134285   20.210237   16.142726
Pt   16.122629   18.147477   16.131154
Pt   16.129523   20.211219   14.139466
Pt   14.145116   18.142676   18.149003
Pt   14.217431   20.204167   20.222547
Pt   16.167414   18.166158   20.220761
Pt   16.164270   20.205133   18.177799
Pt   14.142932   18.137384   22.279753
Pt   14.128497   20.198322   24.283606
Pt   16.130192   18.138351   24.292018
Pt   16.174509   20.202252   22.269852
Pt   14.115735   18.144499   26.269783
Pt   14.191147   20.179386   28.170361
Pt   16.128602   18.124824   28.244610
Pt   16.128654   20.192005   26.275779
Pt   16.214984   20.162018   30.056097
Pt   16.137471   22.266013   12.152054
Pt   14.129634   22.256995   14.140085
Pt   14.135842   24.285068   16.146498
Pt   16.124734   22.269517   16.135623
Pt   16.129519   24.287210   14.146529
Pt   14.148440   22.271633   18.155068
Pt   14.142663   24.271183   20.227991
Pt   16.170623   22.238727   20.226101
Pt   16.128617   24.282204   18.160396
Pt   14.150278   22.264651   22.291068
Pt   14.140355   24.268918   24.297653
Pt   16.139285   22.256602   24.312204
Pt   16.139748   24.270246   22.294269
Pt   14.114893   22.237241   26.278889
Pt   16.114504   22.239018   28.257764
Pt   16.147944   24.272564   26.299222
Pt   16.133232   26.279065   16.149641
Pt   14.136278   26.278999   18.185575
Pt   14.222894   28.177267   20.235116
Pt   16.140836   26.266272   20.229259
Pt   16.147229   28.261162   18.180476
Pt   14.143125   26.266619   22.275267
Pt   16.155149   26.257243   24.310967
Pt   16.151055   28.250408   22.283742
Pt   16.248995   30.065465   20.234481
Pt   18.143173   12.149021   16.138838
Pt   20.190568   10.336408   16.234903
Pt   20.192138   12.229057   14.209858
Pt   18.204481   10.268717   18.210905
Pt   18.179874   12.183025   20.204535
Pt   20.192520   10.181452   20.196480
Pt   20.195081   12.185985   18.185719
Pt   18.206396   10.257239   22.186305
Pt   18.149396   12.127736   24.263905
Pt   20.197244   10.311693   24.156786
Pt   20.199541   12.172624   22.219008
Pt   20.200676   12.198709   26.184899
Pt   18.144330   16.146671   12.141908
Pt   20.192855   14.218724   12.220569
Pt   20.193392   16.246445   10.330722
Pt   18.151656   14.135573   14.128362
Pt   18.137850   16.128170   16.128068
Pt   20.195942   14.135477   16.132536
Pt   20.196746   16.134668   14.132427
Pt   18.133417   14.146673   18.143119
Pt   18.166057   16.164879   20.217224
Pt   20.201050   14.211521   20.211636
Pt   20.200201   16.162334   18.170780
Pt   18.138302   14.138285   22.273878
Pt   18.151407   16.119510   24.287437
Pt   20.205951   14.119004   24.275076
Pt   20.207665   16.165821   22.259798
Pt   18.161667   14.112080   26.271571
Pt   18.159506   16.118294   28.253572
Pt   20.201513   14.188446   28.176432
Pt   20.214794   16.118271   26.274157
Pt   20.214294   16.226218   30.060536
Pt   18.207885   18.225375   10.268652
Pt   18.182191   20.212068   12.189769
Pt   20.197175   18.190642   12.185276
Pt   20.197264   20.213145   10.192269
Pt   18.132612   18.142613   14.145225
Pt   18.162062   20.205392   16.168795
Pt   20.200689   18.163150   16.165010
Pt   20.201062   20.206253   14.216450
Pt   18.169006   18.169875   18.178861
Pt   18.182211   20.201232   20.221432
Pt   20.206042   18.176813   20.218091
Pt   20.204383   20.199132   18.181652
Pt   18.181190   18.173569   22.262009
Pt   18.193809   20.204224   24.282611
Pt   20.222250   18.179684   24.280245
Pt   20.215676   20.206729   22.259884
Pt   18.151199   18.127082   26.265806
Pt   18.187611   20.183180   28.205420
Pt   20.226888   18.176524   28.216677
Pt   20.262859   20.247091   26.271073
Pt   18.201960   18.179086   30.123916
Pt   20.146220   20.145519   30.170790
Pt   18.212052   22.205679   10.276206
Pt   18.152140   24.278533   12.156171
Pt   20.201271   22.228602   12.192372
Pt   20.201349   24.180265   10.345695
Pt   18.136446   22.275583   14.151776
Pt   18.144536   24.284896   16.138141
Pt   20.205049   22.243246   16.170388
Pt   20.204892   24.278873   14.144396
Pt   18.170393   22.236084   18.179833
Pt   18.169327   24.236243   20.220559
Pt   20.207561   22.220526   20.210695
Pt   20.208758   24.241497   18.176533
Pt   18.184055   22.226746   22.267999
Pt   18.176225   24.257266   24.321193
Pt   20.237600   22.256362   24.305440
Pt   20.212028   24.221813   22.248268
Pt   18.191595   22.260056   26.297045
Pt   18.151880   24.167994   28.229526
Pt   20.202774   22.246553   28.315237
Pt   20.241974   24.296295   26.381633
Pt   18.151695   22.116759   30.098600
Pt   20.204573   26.202912   12.240856
Pt   18.163011   26.284633   14.147468
Pt   18.159329   28.265039   16.163705
Pt   20.208951   26.273104   16.148372
Pt   20.207978   28.187465   14.235076
Pt   18.144055   26.260750   18.157797
Pt   18.196256   28.211498   20.229374
Pt   20.213501   26.185896   20.222657
Pt   20.212575   28.215710   18.207465
Pt   18.148166   26.247291   22.291541
Pt   18.168448   28.241663   24.294883
Pt   20.215822   26.224757   24.284285
Pt   20.217812   28.207000   22.246370
Pt   18.209467   26.218870   26.278294
Pt   20.211862   30.073273   16.266411
Pt   18.224081   30.134306   18.243924
Pt   20.213851   30.206741   20.228498
Pt   18.223917   30.126673   22.217115
Pt   20.215616   30.083176   24.169543
Pt   22.243041   12.143744   16.136046
Pt   22.178635   10.262811   18.207613
Pt   22.214306   12.178104   20.200998
Pt   24.156366   10.319165   20.189367
Pt   24.256148   12.137898   18.147204
Pt   22.183850   10.247944   22.178182
Pt   22.251462   12.117512   24.256941
Pt   24.262448   12.123783   22.242403
Pt   22.245568   16.141929   12.138789
Pt   22.237325   14.129964   14.125005
Pt   22.259538   16.122357   16.123549
Pt   24.269041   14.128608   16.124549
Pt   24.270834   16.126496   14.126739
Pt   22.262085   14.142211   18.139747
Pt   22.240701   16.161508   20.213542
Pt   24.268506   14.127351   20.203899
Pt   24.277529   16.118942   18.142662
Pt   22.266219   14.135527   22.271820
Pt   22.264052   16.123639   24.292168
Pt   24.277067   14.104324   24.263450
Pt   24.278368   16.120918   22.273155
Pt   22.245170   14.097328   26.268055
Pt   22.258501   16.098255   28.253680
Pt   24.280945   16.082241   26.247403
Pt   22.182325   18.220368   10.264663
Pt   22.216239   20.206987   12.185842
Pt   24.259992   18.153091   12.138100
Pt   24.158979   20.207350   10.331021
Pt   22.264951   18.137380   14.142168
Pt   22.243151   20.200581   16.165179
Pt   24.279441   18.137161   16.122941
Pt   24.272429   20.200924   14.131950
Pt   22.237064   18.163764   18.172936
Pt   22.233853   20.195699   20.210263
Pt   24.243998   18.156745   20.210204
Pt   24.246716   20.196148   18.166996
Pt   22.240431   18.173941   22.259241
Pt   22.257974   20.220281   24.294240
Pt   24.277601   18.147528   24.307625
Pt   24.246591   20.192803   22.255036
Pt   22.282562   18.157291   26.297518
Pt   22.232892   20.263758   28.307048
Pt   24.309340   18.060789   28.214281
Pt   24.255408   20.226397   26.344814
Pt   22.233938   18.206871   30.103265
Pt   22.186861   22.200668   10.272340
Pt   22.254135   24.273765   12.151899
Pt   24.264891   22.255372   12.143932
Pt   22.269745   22.270122   14.147542
Pt   22.269097   24.280355   16.132920
Pt   24.285130   22.260188   16.127025
Pt   24.280352   24.276724   14.137245
Pt   22.242968   22.232890   18.174909
Pt   22.253567   24.234447   20.214439
Pt   24.252275   22.232340   20.211647
Pt   24.289947   24.274498   18.149234
Pt   22.244722   22.222167   22.246269
Pt   22.258725   24.243409   24.305903
Pt   24.270395   22.237119   24.313922
Pt   24.293570   24.261896   22.283797
Pt   22.265689   22.303928   26.357179
Pt   22.262056   26.252999   26.183150
Pt   24.304639   20.007172   29.951578
Pt   24.279981   24.260293   26.194634
Pt   22.250039   26.280198   14.142677
Pt   22.261628   28.261876   16.157249
Pt   24.284822   26.270300   16.138102
Pt   22.278082   26.257409   18.151639
Pt   22.234124   28.208891   20.223278
Pt   24.286522   26.258337   20.218134
Pt   24.278012   28.252862   18.167904
Pt   22.284562   26.243968   22.286159
Pt   22.278449   28.262292   24.269512
Pt   24.301137   26.263586   24.288578
Pt   24.286572   28.251602   22.259990
Pt   20.233751   28.174090   26.120847
Pt   22.202849   30.131592   18.238009
Pt   24.183275   30.063287   20.214820
Pt   22.207574   30.135985   22.197764
Pt   26.184483   12.211659   20.192208
Pt   26.267597   16.121796   16.123284
Pt   26.268783   14.122013   18.155345
Pt   26.269433   16.123354   20.203995
Pt   28.177059   14.200374   20.192231
Pt   28.257050   16.128563   18.145365
Pt   26.274794   14.113611   22.236197
Pt   26.278749   16.109751   24.261999
Pt   28.266592   16.124132   22.243356
Pt   26.187545   20.200819   12.219385
Pt   26.271728   18.155235   14.123680
Pt   26.272202   20.196085   16.130362
Pt   28.258321   18.143267   16.133522
Pt   28.178170   20.195749   14.208029
Pt   26.260927   18.128599   18.137275
Pt   26.197668   20.191366   20.209700
Pt   28.220697   18.173011   20.202941
Pt   28.220389   20.190544   18.184677
Pt   26.261418   18.128614   22.277961
Pt   26.264440   20.189477   24.298420
Pt   28.283583   18.137025   24.251325
Pt   28.223924   20.186945   22.228146
Pt   26.301857   18.131910   26.247027
Pt   26.261337   20.129988   28.125572
Pt   28.218485   20.192645   26.178529
Pt   26.276618   22.241887   14.127722
Pt   26.278825   24.270874   16.131767
Pt   28.263663   22.244287   16.137472
Pt   26.267697   22.258980   18.140709
Pt   26.281473   24.258125   20.213919
Pt   28.225375   22.204369   20.208189
Pt   28.268333   24.253913   18.156520
Pt   26.267593   22.250008   22.284953
Pt   26.292812   24.249876   24.295864
Pt   28.278253   22.232567   24.271482
Pt   28.276475   24.245856   22.258042
Pt   26.275932   22.207305   26.256318
Pt   26.285884   26.265501   18.169667
Pt   26.208444   28.166916   20.213724
Pt   28.194198   26.175944   20.209719
Pt   26.293517   26.256874   22.254433
Pt   30.072798   16.223509   20.189476
Pt   30.069670   20.191522   16.234505
Pt   30.136176   18.200689   18.208058
Pt   30.220218   20.187188   20.198985
Pt   30.151326   18.197300   22.176745
Pt   30.102713   20.183803   24.148259
Pt   30.140628   22.176869   18.212940
Pt   30.082189   24.149125   20.202348
Pt   30.152265   22.172358   22.186740
