309
Generated with con2xyz
Pt   23.645344   21.366577   11.646142
Pt   21.258976   20.651597   12.910625
Pt   21.140294   20.547963   15.782861
Pt   20.935337   22.744188   23.094805
Pt   23.538687   16.189735   24.430669
Pt   20.789356   20.241212   24.424288
Pt   22.949217   20.764639   28.797532
Pt   20.565323   20.048775   29.993240
Pt   23.714072   23.788690   13.100463
Pt   23.566830   21.282745   14.423900
Pt   24.737479   19.087555   18.736600
Pt   23.462618   23.571210   18.838021
Pt   23.196620   20.963900   23.128150
Pt   23.097780   20.872476   26.023268
Pt   20.674853   20.144299   27.298631
Pt   21.369878   20.743883   10.215285
Pt   21.290374   23.067554   14.401442
Pt   21.024376   20.449785   18.661447
Pt   20.908048   20.349779   21.546712
Pt   21.078516   25.244700   21.731361
Pt   20.822179   22.654532   25.991600
Pt   20.709394   22.518148   28.767649
Pt   19.043746   21.536031   11.466109
Pt   18.893523   21.453866   14.246512
Pt   18.788584   21.340270   17.141046
Pt   18.669598   21.240504   20.040503
Pt   18.565047   23.561853   24.513933
Pt   18.422211   21.041294   25.835917
Pt   18.345359   20.932566   28.615778
Pt   19.820431   18.794567   11.414766
Pt   21.119061   16.685208   12.753654
Pt   19.575405   18.563180   17.093439
Pt   20.877904   16.471012   18.516874
Pt   20.647831   16.248634   24.331119
Pt   16.853866   19.062821   27.116219
Pt   19.215194   18.254859   25.755224
Pt   22.670490   18.690156   11.516873
Pt   22.575923   18.559563   14.295810
Pt   22.443923   18.462018   17.192473
Pt   20.758557   16.351780   21.401777
Pt   22.207973   18.252493   22.980883
Pt   22.107598   18.153262   25.880372
Pt   19.125177   18.191847   28.539093
Pt   25.933305   21.985977   13.201198
Pt   25.852787   21.899339   15.980408
Pt   25.600963   21.686433   21.798720
Pt   23.319400   21.072285   20.221411
Pt   25.502240   21.594935   24.699843
Pt   25.357494   21.489003   27.474975
Pt   26.006702   24.402916   14.649402
Pt   26.036664   26.808522   16.191444
Pt   25.719684   21.789976   18.879126
Pt   23.343462   23.461231   21.786291
Pt   23.251112   23.387828   24.701372
Pt   23.130101   23.278627   27.529746
Pt   21.407932   23.121049   11.621144
Pt   25.914779   26.686976   19.086315
Pt   18.875503   28.506546   21.730350
Pt   21.057329   22.860177   20.187957
Pt   20.967985   25.145199   24.639833
Pt   20.856197   25.008918   27.418442
Pt   19.044381   23.955112   12.915565
Pt   18.919624   23.881599   15.752260
Pt   18.828445   23.752223   18.661067
Pt   18.705238   23.647091   21.594318
Pt   16.216894   24.352916   25.849635
Pt   18.458115   23.450648   27.344748
Pt   16.695867   22.333651   12.834408
Pt   17.308801   19.461475   15.538180
Pt   16.452159   22.143365   18.519502
Pt   16.333097   22.039536   21.438150
Pt   18.552939   21.133018   22.938715
Pt   16.116944   21.837522   27.119704
Pt   17.440170   19.571331   12.706783
Pt   13.518355   18.416555   15.378658
Pt   14.976850   20.270134   16.906566
Pt   14.923723   20.175455   19.852027
Pt   16.953259   19.152162   24.282654
Pt   14.623461   19.978778   25.635252
Pt   18.247341   16.830868   12.738944
Pt   16.695328   14.902549   14.110709
Pt   17.869072   16.450478   21.276578
Pt   19.343934   18.356158   22.855480
Pt   19.268267   14.456078   19.814537
Pt   17.670486   16.328188   26.959446
Pt   19.421118   14.609029   16.940408
Pt   19.683968   18.662910   14.194865
Pt   22.327935   18.360225   20.090298
Pt   23.624621   16.273876   21.514837
Pt   19.064258   14.313562   25.608967
Pt   20.536234   16.180143   27.166570
Pt   23.979551   16.619314   12.938654
Pt   22.301287   14.472296   17.016527
Pt   22.169793   14.373107   19.920833
Pt   25.205416   14.426753   17.165816
Pt   23.414360   16.130521   27.214566
Pt   21.977282   18.090654   28.661012
Pt   24.997279   19.290325   12.995789
Pt   24.891815   19.185144   15.824446
Pt   23.742594   16.378940   18.623972
Pt   24.618694   18.983421   21.675025
Pt   24.540042   18.881327   24.589393
Pt   24.417996   18.789837   27.419144
Pt   28.219120   22.602479   14.772469
Pt   30.345199   25.543366   20.656775
Pt   28.028381   22.414925   20.457937
Pt   27.910655   22.317162   23.341222
Pt   27.763434   22.211299   26.136710
Pt   28.141728   22.515082   17.572201
Pt   23.432859   21.172745   17.316057
Pt   21.433313   30.261694   19.110776
Pt   25.652954   24.110882   23.371235
Pt   25.543533   23.999712   26.211027
Pt   21.438959   25.514668   13.150391
Pt   25.774537   28.896777   23.437016
Pt   26.010890   29.097342   17.781399
Pt   23.526139   28.332498   21.930285
Pt   23.271947   25.773028   26.187387
Pt   16.622687   27.052835   18.728101
Pt   21.172256   22.950885   17.291093
Pt   21.316756   25.464819   15.943802
Pt   21.116101   27.639325   23.257170
Pt   21.003266   27.495971   26.059679
Pt   19.074921   26.355574   14.431873
Pt   21.209919   25.373778   18.809641
Pt   19.001432   28.751617   18.802943
Pt   18.708889   26.051426   23.157072
Pt   18.606401   25.945874   26.001292
Pt   14.333532   25.545936   15.667549
Pt   16.551844   22.252908   15.617219
Pt   16.500206   24.519445   20.068543
Pt   16.337446   24.464905   23.010106
Pt   13.886565   22.738689   25.601348
Pt   16.581336   24.672646   17.130677
Pt   14.201316   23.050758   17.029375
Pt   14.084903   22.951168   19.915726
Pt   14.738591   20.062188   22.791319
Pt   16.197284   21.945388   24.339766
Pt   15.091503   20.384713   14.063940
Pt   12.741027   21.177205   15.451968
Pt   13.966767   22.849151   22.801707
Pt   17.101830   19.244100   21.368244
Pt   17.764083   16.393002   24.158899
Pt   17.982650   16.560341   18.413602
Pt   19.453431   18.455882   19.978180
Pt   20.865684   12.683236   15.468634
Pt   15.645877   17.324487   19.781484
Pt   15.512556   17.265850   22.675731
Pt   15.867055   17.592960   14.021636
Pt   19.171074   14.395952   22.734540
Pt   19.131320   10.570769   22.561035
Pt   20.512004   12.362070   24.193018
Pt   17.863040   12.644939   18.252595
Pt   19.541408   14.716126   14.052205
Pt   18.114303   16.694132   15.534005
Pt   21.004047   16.558339   15.588433
Pt   16.264674   14.468794   22.570847
Pt   21.987654   14.216674   25.739166
Pt   22.440520   14.605288   14.163346
Pt   25.084188   14.301351   20.056672
Pt   23.327889   8.629127   21.200115
Pt   22.082471   14.286268   22.888096
Pt   24.859240   14.171772   25.759552
Pt   27.626992   15.145034   15.838777
Pt   23.762112   12.545424   15.578866
Pt   24.988606   14.237347   22.956567
Pt   23.561504   12.366374   21.423681
Pt   26.266637   12.237640   24.237627
Pt   26.200106   17.116847   17.255908
Pt   23.879956   16.485216   15.719579
Pt   26.020439   17.028576   20.189484
Pt   25.970705   16.918428   23.125796
Pt   25.853273   16.817885   25.968302
Pt   29.821486   15.804908   17.458341
Pt   27.291163   19.914575   14.546400
Pt   26.998113   19.715883   20.322514
Pt   26.944766   19.600125   23.262372
Pt   26.830062   19.517587   26.101989
Pt   28.289260   25.018934   16.211014
Pt   30.463498   23.207067   16.390499
Pt   31.468606   20.932255   23.357576
Pt   30.129055   22.924346   24.747341
Pt   28.252119   27.328941   17.798768
Pt   28.146324   24.906697   19.112050
Pt   30.380455   23.057690   21.983324
Pt   28.021125   27.137712   23.460806
Pt   23.603573   23.704582   15.926387
Pt   28.184803   27.307309   20.632275
Pt   25.691754   26.502440   24.851494
Pt   21.162084   29.940961   24.662822
Pt   21.345268   27.959376   17.435542
Pt   30.416067   25.567138   17.845301
Pt   25.796898   26.592318   21.955033
Pt   23.640985   28.413081   19.073075
Pt   23.424438   28.254279   24.835831
Pt   23.730061   30.748947   20.596895
Pt   25.946434   29.059059   20.614174
Pt   21.291779   30.198170   21.893992
Pt   23.622672   26.093302   17.463949
Pt   19.036808   30.902761   20.486324
Pt   16.746343   29.373002   17.378728
Pt   18.753664   28.428727   24.650371
Pt   14.421072   27.856651   17.265399
Pt   18.866266   26.139983   20.196223
Pt   16.489269   26.949153   21.592660
Pt   16.361340   26.859510   24.487153
Pt   16.681947   24.744356   14.277087
Pt   14.255014   25.441771   18.574344
Pt   14.135535   25.342924   21.438841
Pt   13.987809   25.254961   24.340909
Pt   14.344067   23.130047   14.228350
Pt   11.788453   23.865572   18.446155
Pt   11.673883   23.770367   21.256991
Pt   11.696196   23.621500   24.033514
Pt   12.030781   23.907953   15.674030
Pt   17.220192   19.349989   18.455778
Pt   11.048427   19.032794   22.491629
Pt   12.393007   20.874894   24.122136
Pt   11.272432   19.231468   16.836810
Pt   12.658220   21.069411   18.355690
Pt   13.321697   18.214933   21.155286
Pt   12.543207   20.969168   21.219508
Pt   14.327906   15.720192   15.406956
Pt   15.746695   17.473482   16.887334
Pt   11.905616   16.423553   19.599426
Pt   16.251983   14.498980   25.328297
Pt   14.150310   15.512306   18.223696
Pt   23.440219   8.711570   18.421969
Pt   16.493254   14.671436   16.865783
Pt   15.401909   17.182091   25.544658
Pt   18.041928   12.891036   15.435121
Pt   22.216094   10.620901   16.895065
Pt   20.601728   12.459884   21.298620
Pt   17.704327   12.506758   23.978929
Pt   25.009705   10.552040   17.083270
Pt   22.084444   10.622185   19.828219
Pt   21.961909   10.431188   22.762242
Pt   24.985701   10.390532   19.928155
Pt   20.662264   12.472907   18.274083
Pt   25.296615   14.551716   14.366952
Pt   19.160975   10.615376   19.732602
Pt   23.440337   12.264097   24.299832
Pt   28.830417   13.202471   17.343119
Pt   26.582885   12.516458   15.856008
Pt   28.797985   13.085580   20.160252
Pt   24.789731   10.367565   22.765220
Pt   26.305877   17.209878   14.415333
Pt   27.491307   15.062449   18.742289
Pt   26.467865   12.215747   21.472611
Pt   27.296022   14.854360   24.513447
Pt   28.611672   17.831721   15.981970
Pt   29.578561   20.530759   16.108601
Pt   28.371360   17.637400   21.739782
Pt   30.568986   18.291471   23.249680
Pt   31.692008   21.121625   17.745368
Pt   30.492694   23.151917   19.170013
Pt   30.759609   18.350634   20.423215
Pt   29.233523   20.234780   24.774378
Pt   28.031257   24.810847   21.976537
Pt   27.945063   24.722248   24.881126
Pt   25.728174   24.160125   20.427879
Pt   30.191856   25.379597   23.459398
Pt   25.885308   24.317471   17.489954
Pt   23.397407   25.873517   23.346060
Pt   23.788979   28.549284   16.195911
Pt   23.475884   25.922899   20.409812
Pt   21.208492   27.768694   20.336294
Pt   23.734911   26.199574   14.627166
Pt   21.448180   27.855019   14.693741
Pt   23.558111   30.577817   23.409851
Pt   19.047668   28.655482   15.972590
Pt   16.669766   29.419088   20.227923
Pt   18.929541   30.750109   23.230932
Pt   18.962910   26.291300   17.304869
Pt   16.701223   27.140493   15.802321
Pt   16.579860   29.248526   23.071631
Pt   23.833169   30.748184   17.857965
Pt   14.286200   27.843320   20.095731
Pt   14.203884   27.666477   22.924731
Pt   12.137000   26.259778   17.138937
Pt   11.999048   26.247221   19.945957
Pt   11.914707   26.072283   22.751884
Pt   11.081440   19.100538   19.659602
Pt   10.370585   21.795474   19.725717
Pt   10.332214   21.731406   22.534450
Pt   10.555470   21.926531   16.925095
Pt   11.856580   16.355209   22.420637
Pt   13.170740   18.109615   24.064680
Pt   12.078641   16.555534   16.784631
Pt   14.038656   15.408458   21.083079
Pt   13.988902   15.415222   23.914170
Pt   13.436307   18.316431   18.289450
Pt   16.389560   14.552361   19.711431
Pt   17.724559   12.514574   21.150842
Pt   20.737301   8.834547   18.378019
Pt   20.578783   8.730229   21.097953
Pt   23.663963   12.455709   18.454030
Pt   26.573129   12.310188   18.620849
Pt   27.383342   14.967048   21.606106
Pt   28.618575   13.015767   22.975516
Pt   30.789054   18.482966   17.592679
Pt   29.796833   15.681561   20.289179
Pt   29.606164   15.614909   23.116560
Pt   28.482564   17.733765   18.875015
Pt   27.178889   19.801826   17.385826
Pt   28.273968   17.536730   24.633610
Pt   29.432460   20.424312   19.008562
Pt   31.652291   20.988467   20.553000
Pt   29.319028   20.327167   21.872715
