309
Generated with con2xyz
Pt   21.279251   19.752316   10.350903
Pt   21.338216   19.783226   13.047185
Pt   21.403715   19.818061   15.920654
Pt   21.464475   19.856061   18.804113
Pt   21.524709   19.883573   21.705596
Pt   21.584468   19.895919   24.588368
Pt   21.642801   19.921077   27.462910
Pt   21.698783   19.942214   30.158110
Pt   23.550712   20.687571   11.609971
Pt   23.647866   20.730891   14.388663
Pt   23.700791   20.753129   17.290232
Pt   23.760756   20.784996   20.197688
Pt   23.816932   20.802733   23.110357
Pt   23.892347   20.838478   26.006731
Pt   23.914657   20.849770   28.786876
Pt   21.135583   22.189160   11.646167
Pt   21.192708   22.260651   14.423131
Pt   21.256754   22.277707   17.321193
Pt   21.314701   22.312396   20.234890
Pt   21.374637   22.331343   23.150488
Pt   21.432862   22.369733   26.047394
Pt   21.493121   22.352411   28.825489
Pt   18.956107   20.354756   11.709737
Pt   18.980524   20.394948   14.488690
Pt   19.059073   20.423342   17.386136
Pt   19.115245   20.458714   20.298394
Pt   19.180232   20.477391   23.210873
Pt   19.223248   20.505871   26.109181
Pt   19.318542   20.517115   28.886609
Pt   20.028803   17.707043   11.724405
Pt   20.073709   17.703900   14.507536
Pt   20.150460   17.751611   17.399510
Pt   20.210849   17.794895   20.302999
Pt   20.273000   17.804120   23.200180
Pt   20.316421   17.817612   26.099168
Pt   20.392792   17.871896   28.880418
Pt   22.865040   17.910949   11.660411
Pt   22.948689   17.909346   14.444557
Pt   23.005674   17.953680   17.342354
Pt   23.070880   17.989549   20.245738
Pt   23.128633   17.998383   23.135630
Pt   23.198358   18.021133   26.033012
Pt   23.231208   18.077686   28.816595
Pt   25.842994   21.630216   12.995940
Pt   25.938341   21.666901   15.778054
Pt   25.995934   21.684956   18.688434
Pt   26.039297   21.711028   21.601554
Pt   26.119278   21.744716   24.506884
Pt   26.145185   21.759803   27.289127
Pt   23.440131   23.173014   12.951731
Pt   23.508268   23.212008   15.782738
Pt   23.553634   23.208580   18.705118
Pt   23.608920   23.236249   21.656171
Pt   23.687378   23.292899   24.575769
Pt   23.739149   23.306988   27.407645
Pt   20.993082   24.646984   13.067461
Pt   21.048288   24.712621   15.847068
Pt   21.110023   24.726548   18.753428
Pt   21.167688   24.753990   21.679853
Pt   21.224389   24.793898   24.585707
Pt   21.284287   24.780910   27.365630
Pt   18.775591   22.835622   13.050525
Pt   18.826557   22.876930   15.881374
Pt   18.910769   22.880078   18.801541
Pt   18.970501   22.907436   21.756213
Pt   19.005981   22.959712   24.677204
Pt   19.072953   22.971825   27.507783
Pt   16.618159   20.960854   13.194409
Pt   16.643409   20.999264   15.975252
Pt   16.718964   21.025099   18.879666
Pt   16.779281   21.052724   21.803597
Pt   16.824130   21.082303   24.708669
Pt   16.915865   21.095489   27.488446
Pt   17.655982   18.289005   13.126402
Pt   17.707942   18.315793   15.957867
Pt   17.802362   18.361694   18.874285
Pt   17.863596   18.389167   21.817187
Pt   17.891274   18.401156   24.735028
Pt   17.959657   18.426843   27.567669
Pt   18.774732   15.650799   13.221109
Pt   18.826917   15.646735   16.006036
Pt   18.906626   15.700513   18.912416
Pt   18.968569   15.725645   21.785537
Pt   19.004118   15.734376   24.696214
Pt   19.077852   15.787073   27.478075
Pt   21.619099   15.808705   13.085881
Pt   21.687049   15.806556   15.928034
Pt   21.746777   15.874400   18.846963
Pt   21.812587   15.886795   21.723984
Pt   21.864618   15.897434   24.651445
Pt   21.923027   15.947099   27.489787
Pt   24.468326   16.067628   13.084495
Pt   24.544752   16.054605   15.871385
Pt   24.588642   16.096413   18.786049
Pt   24.654002   16.093276   21.666039
Pt   24.731841   16.137336   24.575119
Pt   24.770285   16.200767   27.363957
Pt   25.191626   18.835324   12.958227
Pt   25.265303   18.857581   15.793241
Pt   25.308285   18.897397   18.720178
Pt   25.366410   18.915471   21.655433
Pt   25.461147   18.941394   24.566846
Pt   25.502613   18.973452   27.400839
Pt   28.133303   22.565673   14.395641
Pt   28.233508   22.599453   17.200038
Pt   28.322329   22.612465   20.102789
Pt   28.342345   22.643794   22.961866
Pt   28.381335   22.660429   25.774216
Pt   25.739726   24.109141   14.334539
Pt   25.795925   24.144049   17.179892
Pt   25.825969   24.114642   20.127559
Pt   25.911099   24.200366   23.070795
Pt   25.975139   24.211845   25.914801
Pt   23.292202   25.631958   14.369604
Pt   23.365510   25.658062   17.213876
Pt   23.394112   25.628099   20.162727
Pt   23.482374   25.713713   23.108737
Pt   23.526596   25.738222   25.952769
Pt   20.849830   27.099267   14.504784
Pt   20.903786   27.164708   17.306386
Pt   20.961242   27.196045   20.197254
Pt   21.018030   27.218951   23.088187
Pt   21.076841   27.205220   25.890056
Pt   18.635676   25.296141   14.466232
Pt   18.679635   25.324190   17.310801
Pt   18.780121   25.300897   20.258884
Pt   18.797703   25.379237   23.208315
Pt   18.869342   25.405121   26.052508
Pt   16.428244   23.436691   14.530085
Pt   16.490523   23.479528   17.373798
Pt   16.594615   23.458822   20.321131
Pt   16.610192   23.534775   23.269797
Pt   16.664400   23.545644   26.114546
Pt   14.280624   21.563061   14.693883
Pt   14.301647   21.600628   17.495546
Pt   14.357429   21.628790   20.384504
Pt   14.420177   21.656225   23.273898
Pt   14.515311   21.671408   26.074610
Pt   15.311695   18.900297   14.603620
Pt   15.368020   18.917483   17.446102
Pt   15.490012   18.966082   20.387868
Pt   15.489205   18.975598   23.332891
Pt   15.552544   19.011674   26.175775
Pt   16.403490   16.227913   14.616655
Pt   16.453654   16.269438   17.457962
Pt   16.575127   16.314037   20.392779
Pt   16.573022   16.329545   23.329460
Pt   16.643984   16.342367   26.173481
Pt   17.515700   13.594869   14.720881
Pt   17.579947   13.609116   17.548611
Pt   17.662273   13.581345   20.395246
Pt   17.686765   13.670945   23.248423
Pt   17.750811   13.708159   26.076516
Pt   20.354162   13.730281   14.584072
Pt   20.442846   13.732381   17.476091
Pt   20.491521   13.722342   20.331479
Pt   20.545816   13.790788   23.211170
Pt   20.595337   13.839122   26.082199
Pt   23.232216   13.948287   14.497818
Pt   23.288847   13.939628   17.390488
Pt   23.312261   13.939554   20.239189
Pt   23.386177   14.004299   23.188421
Pt   23.468182   14.068352   26.048875
Pt   26.086888   14.227367   14.504203
Pt   26.142335   14.216653   17.339730
Pt   26.203226   14.200432   20.179184
Pt   26.296264   14.283722   23.102968
Pt   26.336385   14.347768   25.913855
Pt   26.795289   16.982747   14.381592
Pt   26.861464   17.010930   17.226750
Pt   26.866716   17.046828   20.169271
Pt   26.994318   17.068348   23.104596
Pt   27.041457   17.088276   25.953429
Pt   27.486841   19.779178   14.335495
Pt   27.555579   19.789612   17.184726
Pt   27.589984   19.842690   20.151688
Pt   27.707191   19.855195   23.054183
Pt   27.747263   19.894537   25.906735
Pt   30.381001   23.489208   15.838316
Pt   30.583853   23.567532   18.617040
Pt   30.625509   23.572142   21.442698
Pt   30.487971   23.592801   24.223229
Pt   28.026105   25.044232   15.730388
Pt   28.063733   25.046625   18.639664
Pt   28.122925   25.073692   21.506585
Pt   28.193264   25.131691   24.413531
Pt   25.597508   26.573685   15.771324
Pt   25.650583   26.583068   18.671708
Pt   25.708059   26.610959   21.543387
Pt   25.769650   26.656741   24.442738
Pt   23.150467   28.077730   15.800529
Pt   23.208734   28.071988   18.708560
Pt   23.265385   28.098830   21.578412
Pt   23.321808   28.158791   24.485780
Pt   20.709560   29.507598   15.992402
Pt   20.754027   29.679162   18.768213
Pt   20.808300   29.705291   21.586895
Pt   20.872668   29.585640   24.365154
Pt   18.489768   27.743369   15.895328
Pt   18.552789   27.740109   18.804198
Pt   18.609004   27.766768   21.674852
Pt   18.661298   27.824653   24.583559
Pt   16.280475   25.903528   15.962698
Pt   16.349199   25.919764   18.864406
Pt   16.406548   25.946349   21.738607
Pt   16.454432   25.984906   24.640777
Pt   14.092106   24.038413   16.021671
Pt   14.181426   24.056712   18.929069
Pt   14.239272   24.083687   21.798667
Pt   14.268553   24.120888   24.707436
Pt   11.983167   22.154387   16.241082
Pt   11.898275   22.216163   19.019640
Pt   11.955781   22.243051   21.837154
Pt   12.154480   22.234696   24.611162
Pt   12.973075   19.499491   16.092202
Pt   13.063889   19.522125   18.997048
Pt   13.122561   19.550301   21.865116
Pt   13.151586   19.584195   24.772406
Pt   14.040861   16.832112   16.108342
Pt   14.117102   16.863131   19.002783
Pt   14.175325   16.892676   21.869598
Pt   14.218798   16.919392   24.767353
Pt   15.131807   14.187383   16.112414
Pt   15.225391   14.228658   19.012561
Pt   15.280564   14.259024   21.866645
Pt   15.307236   14.277557   24.773018
Pt   16.267602   11.661187   16.269920
Pt   16.302032   11.560526   19.031481
Pt   16.345707   11.588409   21.859289
Pt   16.430992   11.746970   24.619740
Pt   19.084402   11.785319   16.121916
Pt   19.156872   11.702062   18.941604
Pt   19.174308   11.728131   21.828149
Pt   19.241529   11.865496   24.646154
Pt   21.966377   11.985044   16.020452
Pt   24.902788   12.036176   18.742500
Pt   22.017544   11.840177   21.770094
Pt   22.146230   12.000398   24.619854
Pt   24.846516   12.218335   15.917042
Pt   24.955111   12.230291   21.702329
Pt   23.775748   10.281820   23.177255
Pt   25.040998   12.231155   24.635028
Pt   27.659354   12.485967   15.991639
Pt   27.770848   12.330550   18.769512
Pt   26.439516   10.411558   20.335503
Pt   27.870194   12.514224   24.396375
Pt   28.412814   15.146063   15.808878
Pt   28.439286   15.171509   18.714481
Pt   28.506518   15.205190   21.575429
Pt   28.605548   15.224009   24.489879
Pt   29.107750   17.917127   15.776731
Pt   29.151334   17.939518   18.672574
Pt   29.213065   17.984233   21.537056
Pt   29.286306   18.003532   24.461472
Pt   29.771414   20.705408   15.721920
Pt   29.809823   20.717657   18.642316
Pt   30.000564   20.790667   21.559235
Pt   29.945486   20.797990   24.382119
Pt   30.166075   25.896406   17.208208
Pt   30.269812   25.971405   20.025953
Pt   30.294536   25.926928   22.825875
Pt   27.823068   27.408570   17.224262
Pt   27.926758   27.505115   20.053475
Pt   27.937420   27.460480   22.883444
Pt   25.395738   28.917808   17.257254
Pt   25.506184   29.013339   20.089098
Pt   25.508123   28.971143   22.923836
Pt   22.996708   30.351985   17.315260
Pt   23.105417   30.438759   20.124874
Pt   23.105671   30.403897   22.937339
Pt   18.381469   30.021097   17.408287
Pt   18.375291   30.101738   20.221050
Pt   18.490234   30.073544   23.032570
Pt   16.210154   28.258337   17.444286
Pt   16.204072   28.349142   20.281416
Pt   16.321274   28.311390   23.117477
Pt   14.022169   26.415174   17.507018
Pt   14.026389   26.514071   20.343604
Pt   14.135419   26.469069   23.179381
Pt   11.917243   24.574952   17.593023
Pt   11.930766   24.671249   20.404497
Pt   12.030918   24.628502   23.215675
Pt   10.808455   20.080944   17.660808
Pt   10.796228   20.064900   20.472616
Pt   10.923619   20.135208   23.281430
Pt   11.812806   17.469855   17.645432
Pt   11.793620   17.455189   20.478245
Pt   11.928398   17.526222   23.308552
Pt   12.889048   14.819519   17.658941
Pt   12.871063   14.811004   20.482676
Pt   13.002694   14.879301   23.305492
Pt   14.008664   12.235544   17.689381
Pt   14.017380   12.225805   20.483959
Pt   14.115308   12.298014   23.282412
Pt   22.036170   11.823826   18.869695
Pt   23.713233   10.194182   20.400064
Pt   26.515163   10.499365   23.093236
Pt   29.869119   13.376619   17.325362
Pt   27.902089   12.368163   21.602913
Pt   30.032492   13.466742   22.941544
Pt   30.020388   13.405425   20.113274
Pt   30.747598   16.107589   20.088364
Pt   30.732184   16.151096   22.921971
Pt   30.603972   16.092690   17.265892
Pt   31.424945   18.882719   20.063347
Pt   31.361098   18.851505   22.912571
Pt   31.898827   21.597578   17.172817
Pt   31.283080   18.868637   17.223917
Pt   32.025664   21.610893   19.910930
