309
Generated with con2xyz
Pt   8.526590   20.007901   22.420728
Pt   16.122091   16.033604   18.289823
Pt   12.144699   16.034371   18.319748
Pt   10.296280   16.054309   20.369111
Pt   12.202238   20.099501   14.363979
Pt   12.129337   18.053579   16.298408
Pt   12.174718   20.101231   18.339615
Pt   8.513661   18.071667   20.479678
Pt   12.117136   18.067802   20.378789
Pt   10.331618   20.123717   16.393998
Pt   14.118095   18.039021   18.311680
Pt   10.319821   20.101231   24.426722
Pt   12.208491   18.040918   24.476137
Pt   14.129817   18.038919   22.413769
Pt   12.125740   20.090363   22.401545
Pt   12.283098   20.099958   26.387881
Pt   12.147354   22.167027   16.277680
Pt   10.211090   18.082991   18.350462
Pt   10.357504   24.096159   20.369860
Pt   12.187041   22.136812   20.378080
Pt   10.296577   22.169364   18.322969
Pt   10.146243   20.188491   20.295368
Pt   14.166254   24.167773   24.438540
Pt   12.167068   24.174629   22.428484
Pt   12.242965   26.111362   20.383752
Pt   14.240906   12.180598   20.336694
Pt   18.180048   14.004611   22.376480
Pt   14.143295   14.022407   18.299188
Pt   16.186531   12.049908   22.374818
Pt   12.198311   15.983234   22.414987
Pt   14.116573   16.033699   16.286774
Pt   16.102259   16.031228   14.277570
Pt   14.172311   14.001251   22.398161
Pt   10.259434   17.966351   22.507619
Pt   16.174365   12.064374   18.304325
Pt   16.121424   14.030912   16.278140
Pt   12.250676   14.077313   20.351409
Pt   16.181963   16.016614   26.395946
Pt   16.182835   14.007773   24.398702
Pt   14.178479   16.014437   24.424219
Pt   16.169935   20.101516   26.405704
Pt   14.173330   20.097175   12.366129
Pt   16.097728   18.050518   12.278746
Pt   16.184383   20.100482   10.463252
Pt   14.102049   18.055297   14.278350
Pt   14.113157   20.099922   16.285662
Pt   16.100405   18.043950   16.275156
Pt   16.097797   20.100564   14.272271
Pt   14.132249   16.033954   20.355212
Pt   14.173692   20.088013   20.379063
Pt   14.125634   22.166453   18.298879
Pt   16.136968   20.100719   18.320774
Pt   18.179334   16.023289   24.391618
Pt   14.148328   20.101176   24.418635
Pt   16.150086   18.044883   24.410281
Pt   12.171216   22.148156   24.438669
Pt   14.186328   18.045721   26.437493
Pt   14.267577   20.087862   28.341205
Pt   16.199723   18.035073   28.390584
Pt   16.163221   22.158420   24.438303
Pt   16.301202   20.073359   30.210529
Pt   16.095337   22.152473   12.273206
Pt   14.106474   22.146577   14.267532
Pt   14.122041   24.186694   16.277195
Pt   16.096319   22.162860   16.268940
Pt   16.095473   24.180135   14.267035
Pt   12.161578   24.200423   18.314129
Pt   14.139807   24.175651   20.369746
Pt   16.149424   22.130901   20.354272
Pt   16.108436   24.180779   18.289381
Pt   14.144220   22.151389   22.431748
Pt   10.232477   22.131565   22.401381
Pt   16.174755   20.102625   22.392529
Pt   16.140047   24.169004   22.418779
Pt   14.167315   22.144617   26.429549
Pt   16.176206   22.146607   28.400970
Pt   16.190762   24.174373   26.432319
Pt   16.106815   26.181430   16.269585
Pt   14.132530   26.194348   18.320450
Pt   14.223705   28.093676   20.371363
Pt   16.134809   26.173380   20.354710
Pt   16.131032   28.174113   18.300137
Pt   14.155685   26.177606   22.416787
Pt   16.168362   26.164441   24.435325
Pt   16.156252   28.165538   22.405244
Pt   16.243261   29.984139   20.352502
Pt   18.139679   12.056032   16.253064
Pt   20.220137   10.251979   16.331595
Pt   20.187636   12.145537   14.314352
Pt   18.280285   10.197046   18.262244
Pt   18.141700   14.035585   18.285745
Pt   20.212362   10.115025   20.330291
Pt   20.206903   12.101234   18.305954
Pt   18.225999   10.243883   22.341415
Pt   18.212346   12.057046   24.376327
Pt   22.285888   12.068991   24.336388
Pt   18.139140   12.000476   20.321342
Pt   20.268126   12.197187   26.298276
Pt   18.110657   16.046590   12.264857
Pt   20.167068   14.127735   12.329078
Pt   20.150633   16.151736   10.439103
Pt   18.134781   14.041599   14.250737
Pt   16.160157   18.068652   20.356849
Pt   20.190088   14.043770   16.246815
Pt   20.172750   16.040691   14.246669
Pt   18.126300   16.025683   16.262453
Pt   16.148687   16.025102   22.400696
Pt   20.187599   14.070155   20.353920
Pt   20.196301   16.054960   18.297504
Pt   16.164649   14.044997   20.342102
Pt   18.181241   16.072426   20.342226
Pt   20.245853   14.046409   24.360592
Pt   20.244957   18.089133   24.380144
Pt   18.209437   14.018994   26.386275
Pt   18.210940   16.026649   28.368145
Pt   20.264714   18.084396   28.309152
Pt   22.313040   14.024090   26.356058
Pt   20.261835   16.122533   30.172688
Pt   18.159491   18.119348   10.385981
Pt   18.137687   20.104031   12.309882
Pt   20.157034   18.092177   12.297709
Pt   20.144931   20.108921   10.300008
Pt   18.103414   18.038859   14.275492
Pt   18.133809   20.104298   16.296173
Pt   20.180468   18.063982   16.284436
Pt   20.164097   20.105440   14.330258
Pt   18.159863   18.073581   18.304781
Pt   18.178170   20.107428   20.337452
Pt   22.228912   18.072271   18.273323
Pt   20.212804   18.089739   20.321598
Pt   18.193963   18.083882   22.376425
Pt   18.213237   20.111804   24.394915
Pt   20.226895   16.078614   22.357897
Pt   20.228746   20.116752   22.358264
Pt   18.183421   18.035582   26.374263
Pt   18.242942   20.099947   28.326679
Pt   20.256822   16.028821   26.373348
Pt   20.287239   20.144709   26.381721
Pt   18.276411   18.090995   30.252108
Pt   20.228193   20.052066   30.269613
Pt   18.156924   22.091194   10.386743
Pt   18.102437   24.168271   12.264577
Pt   20.152087   22.124188   12.299255
Pt   20.141602   24.068496   10.442861
Pt   18.097164   22.169781   14.270755
Pt   18.111563   24.184040   16.253931
Pt   20.173978   22.148176   16.276823
Pt   20.160369   24.179419   14.246209
Pt   18.148863   22.137277   18.300996
Pt   18.156757   24.138699   20.335689
Pt   20.205007   22.134029   20.318463
Pt   20.184973   24.148702   18.279912
Pt   18.184826   22.133262   22.375233
Pt   18.187059   24.169227   24.431209
Pt   20.238214   22.159501   24.381529
Pt   20.227901   26.149039   24.389255
Pt   18.233761   22.165563   26.420076
Pt   18.198540   24.071089   28.361395
Pt   20.316725   22.182699   28.454803
Pt   20.247371   24.220821   26.481675
Pt   18.235535   22.027245   30.223239
Pt   20.148776   26.096681   12.333963
Pt   18.118912   26.180930   14.253424
Pt   18.122486   28.169162   16.266854
Pt   20.170385   26.178625   16.245771
Pt   20.157996   28.087585   14.324759
Pt   18.119684   26.165680   18.269787
Pt   18.183600   28.124442   20.338399
Pt   20.197056   26.096880   20.322101
Pt   20.182457   28.126116   18.301105
Pt   18.148433   26.155376   22.403898
Pt   18.173151   28.158905   24.403182
Pt   20.234846   28.101489   26.223619
Pt   20.210138   28.123152   22.345881
Pt   18.214809   26.144819   26.388654
Pt   20.169627   29.979763   16.352309
Pt   18.200131   30.047394   18.345773
Pt   20.194224   30.123618   20.322599
Pt   18.221561   30.047455   22.324239
Pt   20.218886   30.003004   24.268983
Pt   22.252892   12.068056   16.239184
Pt   22.197928   10.190192   18.320287
Pt   22.235119   12.104648   20.306834
Pt   24.213609   10.260034   20.271475
Pt   24.275036   12.071182   18.234284
Pt   20.243537   12.002489   22.395928
Pt   22.306014   10.202795   22.232340
Pt   22.282372   14.042864   22.370663
Pt   22.213240   16.053912   12.238585
Pt   22.223539   14.047956   14.224875
Pt   22.245534   16.035171   16.228249
Pt   24.267806   14.054543   16.214700
Pt   24.250998   16.045892   14.217446
Pt   22.264402   14.059135   18.246600
Pt   22.239567   16.058549   20.312115
Pt   24.291099   14.050445   20.295691
Pt   24.278240   16.037970   18.233060
Pt   24.311861   14.044744   24.364086
Pt   22.304292   16.050802   24.391229
Pt   24.314856   12.065555   22.349209
Pt   24.298989   16.038276   22.358352
Pt   22.320154   16.021471   28.346644
Pt   20.267053   14.101019   28.285737
Pt   24.336165   16.060106   26.367733
Pt   22.136452   18.127419   10.365781
Pt   22.172978   20.111491   12.288124
Pt   24.225189   18.066938   12.230629
Pt   24.109657   20.116740   10.423291
Pt   22.235276   18.046308   14.244257
Pt   22.219297   20.109411   16.263381
Pt   24.263705   18.053953   16.211698
Pt   24.240659   20.115153   14.221078
Pt   20.192546   20.110264   18.289462
Pt   22.234784   20.115624   20.303185
Pt   24.246270   18.071049   20.291842
Pt   24.235333   20.113809   18.250601
Pt   22.257634   18.083158   22.344650
Pt   22.290064   20.116549   24.366688
Pt   24.309927   18.073841   24.385603
Pt   22.256368   22.147937   22.348952
Pt   22.317680   18.099009   26.388856
Pt   22.345424   20.162237   28.438781
Pt   24.241192   18.049438   28.312797
Pt   26.323237   22.154915   26.311077
Pt   22.210274   18.064424   30.188054
Pt   22.130992   22.098777   10.368613
Pt   22.200174   24.174333   12.243415
Pt   24.217606   22.166227   12.232835
Pt   22.229287   22.176685   14.245093
Pt   22.234860   24.191977   16.224125
Pt   24.257948   22.176997   16.210208
Pt   24.236590   24.191044   14.219045
Pt   22.226625   22.147971   18.266362
Pt   22.243199   24.151532   20.304848
Pt   24.247047   22.157621   20.289614
Pt   24.268258   24.196315   18.227546
Pt   20.217957   24.139244   22.355285
Pt   22.282337   24.180525   24.410332
Pt   24.306432   22.165010   24.395918
Pt   24.291084   24.189050   22.364146
Pt   22.282001   22.141224   26.384733
Pt   22.365620   24.138817   28.227232
Pt   24.351138   24.218104   26.349986
Pt   24.295862   22.219297   28.211412
Pt   22.201287   26.185963   14.227888
Pt   22.218889   28.171459   16.238867
Pt   24.245465   26.188441   16.214742
Pt   22.248906   26.171400   18.239466
Pt   22.210870   28.127914   20.308161
Pt   24.268630   26.183863   20.294010
Pt   24.242304   28.175391   18.240505
Pt   22.278075   26.164214   22.374377
Pt   22.276174   28.177585   24.363781
Pt   24.299423   26.196821   24.357155
Pt   24.272462   28.180696   22.335536
Pt   22.279021   26.180227   26.343642
Pt   22.165263   30.048198   18.316430
Pt   24.151551   29.990316   20.286322
Pt   22.193858   30.055104   22.287462
Pt   26.225703   12.155592   20.276344
Pt   26.262486   16.048819   16.201941
Pt   26.284171   14.053483   18.233065
Pt   26.285021   16.050557   20.280199
Pt   28.205315   14.138885   20.266276
Pt   28.265587   16.062882   18.212345
Pt   26.311141   14.056956   22.326029
Pt   26.307965   16.055832   24.358296
Pt   28.291814   16.061995   22.314734
Pt   26.149714   20.120647   12.300667
Pt   26.250129   18.077902   14.203018
Pt   26.253682   20.119621   16.205158
Pt   28.249745   18.075006   16.199421
Pt   28.153049   20.125192   14.275511
Pt   26.258415   18.054030   18.211754
Pt   26.198645   20.117541   20.277614
Pt   28.230388   18.105885   20.264074
Pt   28.214986   20.123982   18.245899
Pt   26.278804   18.052601   22.342905
Pt   24.257192   20.118831   22.325552
Pt   28.298117   18.068091   24.324277
Pt   28.239646   20.122123   22.282675
Pt   26.302212   18.089761   26.325106
Pt   24.371137   20.115425   26.451038
Pt   28.253197   20.118351   26.157750
Pt   26.241858   22.163948   14.203727
Pt   26.247041   24.196165   16.201292
Pt   28.241276   22.175796   16.199752
Pt   26.252341   22.185240   18.210176
Pt   26.270521   24.191452   20.279133
Pt   28.222491   22.141338   20.263498
Pt   28.246805   24.188944   18.211963
Pt   26.283328   20.119262   24.342670
Pt   26.313985   24.191228   24.341676
Pt   28.305113   22.174501   24.314827
Pt   28.280993   24.189483   22.305766
Pt   26.274790   22.184975   22.344395
Pt   26.257473   26.195790   18.233972
Pt   26.182615   28.101431   20.275063
Pt   28.176491   26.116768   20.260649
Pt   26.285704   26.194586   22.316496
Pt   30.090966   16.164162   20.249196
Pt   30.056894   20.129290   16.288906
Pt   30.138192   18.139310   18.262123
Pt   30.224869   20.125813   20.248556
Pt   30.167853   18.134335   22.231758
Pt   30.136779   20.121649   24.186492
Pt   30.129945   22.117115   18.262875
Pt   30.074718   24.093750   20.243386
Pt   30.164245   22.116270   22.224012
