309
Generated with con2xyz
Pt   16.578215   16.100177   17.873120
Pt   18.756641   14.667708   18.784777
Pt   19.058834   16.750984   16.907649
Pt   17.192338   16.223272   20.537152
Pt   15.702186   22.213628   15.817853
Pt   19.399862   18.943075   15.094110
Pt   16.835828   18.196879   15.980906
Pt   15.230941   19.768830   17.767909
Pt   17.549474   18.458119   18.690792
Pt   17.826785   20.649065   16.833094
Pt   17.249769   20.413117   14.193455
Pt   15.035249   17.676695   19.619326
Pt   13.593823   19.405981   21.304603
Pt   15.665299   17.914696   22.293278
Pt   16.019740   20.151640   20.448625
Pt   14.241417   19.668843   23.975921
Pt   18.260280   22.885708   14.995356
Pt   13.344884   21.406059   16.798816
Pt   14.800593   19.789722   15.124566
Pt   16.306465   22.329922   18.577815
Pt   16.705740   24.608009   16.781320
Pt   13.791824   21.568447   19.480764
Pt   14.457126   21.847877   22.195881
Pt   14.801120   24.036308   20.377857
Pt   14.198836   23.793127   17.699598
Pt   21.004353   13.292659   19.762696
Pt   23.256938   12.026595   20.763220
Pt   23.579222   13.986383   18.878521
Pt   21.698406   13.473588   22.485617
Pt   21.649868   17.526597   16.072146
Pt   23.910230   16.142504   17.060324
Pt   24.248849   18.299634   15.271408
Pt   21.308106   15.351967   17.890665
Pt   19.782434   17.019027   19.652696
Pt   22.044081   15.633458   20.638576
Pt   22.390185   17.799536   18.786107
Pt   19.440476   14.836150   21.492132
Pt   17.920794   16.504375   23.254342
Pt   20.175798   15.123718   24.227120
Pt   20.503657   17.282870   22.411251
Pt   18.673717   16.786905   25.953788
Pt   19.800238   21.167007   13.384646
Pt   22.370025   21.931711   12.592960
Pt   31.397829   22.639722   17.351433
Pt   21.993116   19.714861   14.274736
Pt   20.452798   21.419543   16.003507
Pt   22.730983   19.977427   16.981922
Pt   23.063043   22.195949   15.198192
Pt   20.128263   19.210233   17.797610
Pt   18.620274   20.943504   19.585794
Pt   20.870471   19.506812   20.573455
Pt   21.216817   21.706110   18.752324
Pt   18.246939   18.686017   21.437321
Pt   16.719228   20.411782   23.172991
Pt   18.988113   18.962481   24.153733
Pt   19.344912   21.197058   22.326042
Pt   16.401320   18.203235   24.986973
Pt   14.998382   19.943288   26.665798
Pt   17.177513   18.478785   27.680485
Pt   17.481385   20.687732   25.882325
Pt   17.994219   25.082656   31.089371
Pt   23.414045   24.412529   13.411882
Pt   20.824640   23.637091   14.191479
Pt   19.292794   25.336115   15.929428
Pt   21.528285   23.916541   16.908494
Pt   21.885929   26.101384   15.125700
Pt   18.916660   23.139014   17.724188
Pt   17.395383   24.803249   19.510848
Pt   19.690131   23.396948   20.504736
Pt   20.013317   25.592667   18.647605
Pt   17.036856   22.634385   21.349047
Pt   15.531627   24.304929   23.101105
Pt   17.783882   22.903353   24.078074
Pt   18.124175   25.081407   22.271635
Pt   15.203694   22.114481   24.906994
Pt   15.977519   22.401600   27.609085
Pt   16.290784   24.581611   25.809832
Pt   20.381021   27.766623   16.850762
Pt   17.773049   27.016712   17.693015
Pt   15.257680   26.195730   18.598725
Pt   18.497990   27.250875   20.434577
Pt   18.879789   29.432794   18.609486
Pt   15.884133   26.481104   21.288690
Pt   16.626222   26.741289   24.019614
Pt   16.989213   28.910453   22.216335
Pt   16.342839   28.603285   19.504808
Pt   26.187746   14.777453   18.072088
Pt   28.390097   13.575328   19.164696
Pt   28.768659   15.636569   17.354321
Pt   25.842053   12.740451   19.958847
Pt   24.338957   14.320097   21.655530
Pt   26.614086   12.946050   22.654544
Pt   26.957925   15.111187   20.847948
Pt   24.015641   12.245229   23.453989
Pt   22.459753   13.764559   25.213389
Pt   23.273216   14.149453   27.881151
Pt   25.106271   14.609111   24.389426
Pt   21.779867   15.798746   29.594871
Pt   26.862804   19.089668   14.492542
Pt   29.104124   17.781370   15.573866
Pt   27.966861   21.583736   15.471753
Pt   26.536662   16.926840   16.276697
Pt   25.017646   18.581608   17.981248
Pt   27.330866   17.226790   19.011614
Pt   27.666833   19.382474   17.221281
Pt   24.668487   16.436492   19.781107
Pt   23.144796   18.115020   21.566832
Pt   25.438202   16.798269   22.580600
Pt   25.801920   18.909467   20.754056
Pt   22.774187   15.921270   23.409958
Pt   21.273056   17.565789   25.147442
Pt   23.593961   16.214363   26.156962
Pt   23.928286   18.403134   24.333166
Pt   20.962605   15.414217   26.949731
Pt   19.456879   17.084136   28.661430
Pt   20.317624   17.494841   31.225955
Pt   22.092216   17.872064   27.879592
Pt   21.369988   19.900172   32.194957
Pt   24.597836   20.485802   13.490046
Pt   26.030612   25.134916   12.762615
Pt   24.936930   22.700436   11.906869
Pt   30.504857   22.374963   14.717008
Pt   25.341893   20.749702   16.203905
Pt   23.826484   22.481054   17.948223
Pt   26.138229   21.071169   18.962253
Pt   26.443578   23.263106   17.216329
Pt   23.498463   20.287536   19.749160
Pt   21.978296   21.982093   21.504843
Pt   24.272879   20.573722   22.504923
Pt   24.614825   22.767230   20.687147
Pt   21.628952   19.781438   23.321468
Pt   20.112292   21.474570   25.049574
Pt   22.425411   20.065741   26.058348
Pt   22.750033   22.261867   24.255027
Pt   19.773105   19.241973   26.855881
Pt   15.833514   20.241304   29.289090
Pt   20.597011   19.587916   29.560474
Pt   20.936200   21.770988   27.739731
Pt   18.042378   18.850332   30.311178
Pt   19.088346   21.268161   31.285402
Pt   27.184799   21.322718   12.834181
Pt   24.498835   26.869167   14.346892
Pt   25.689502   22.981096   14.470622
Pt   26.788852   25.445736   15.399820
Pt   24.137499   24.699265   16.129323
Pt   22.640972   26.380517   17.837574
Pt   24.949358   24.969462   18.887887
Pt   25.292756   27.165681   17.074942
Pt   22.315199   24.178597   19.678148
Pt   20.791788   25.842802   21.430850
Pt   23.090530   24.456531   22.435924
Pt   23.444215   26.635254   20.612771
Pt   20.445425   23.670191   23.254594
Pt   18.891402   25.365206   25.010193
Pt   21.231936   23.962432   25.991517
Pt   21.567897   26.127419   24.196357
Pt   18.564812   23.191280   26.785195
Pt   17.077332   24.859441   28.521770
Pt   19.414423   23.449245   29.491499
Pt   19.708071   25.655528   27.743388
Pt   16.877507   22.657908   30.243365
Pt   18.272261   27.255859   29.390163
Pt   27.077021   27.542785   13.736967
Pt   23.001880   28.548577   16.063176
Pt   21.492727   30.200046   17.794202
Pt   23.790324   28.829772   18.797097
Pt   25.614544   29.243928   15.366880
Pt   21.134115   28.024682   19.572025
Pt   17.494157   30.937699   20.434963
Pt   21.940484   28.246318   22.373286
Pt   22.280126   30.439341   20.569099
Pt   19.235995   27.509983   23.204825
Pt   17.750152   29.182295   24.940682
Pt   20.044907   27.816963   25.951141
Pt   20.423891   29.935876   24.115878
Pt   17.409844   27.031856   26.742912
Pt   18.607506   29.405945   27.607946
Pt   18.989731   31.467735   25.796677
Pt   24.120331   30.899336   17.081583
Pt   19.658437   29.657229   21.380858
Pt   20.045893   31.759439   19.621421
Pt   18.211901   31.257758   23.117017
Pt   21.545049   32.301734   25.004394
Pt   29.625170   15.862292   20.024848
Pt   29.163322   13.778380   21.845067
Pt   27.726580   15.394987   23.581568
Pt   27.340157   13.292505   25.345998
Pt   29.879816   14.095068   24.530639
Pt   24.752998   12.592298   26.134736
Pt   25.898288   14.860029   27.163353
Pt   28.504899   15.630804   26.352525
Pt   29.386947   19.949223   13.872847
Pt   29.965820   18.009366   18.221912
Pt   28.486425   19.680176   19.958744
Pt   30.747217   18.303375   20.942103
Pt   31.082140   20.461975   19.147253
Pt   28.146519   17.544499   21.763964
Pt   26.590595   19.206822   23.520978
Pt   28.889870   17.813879   24.532557
Pt   29.270697   19.986342   22.705827
Pt   26.250959   17.031242   25.379338
Pt   24.742159   18.664975   27.107300
Pt   27.013977   17.305291   28.098323
Pt   27.377817   19.470763   26.298634
Pt   24.392901   16.504390   28.890627
Pt   22.897303   18.173151   30.606888
Pt   25.513093   18.953331   29.817793
Pt   28.299509   23.761819   13.676749
Pt   29.069424   24.049303   16.394551
Pt   30.298782   20.178477   16.441696
Pt   29.343069   26.182885   14.649273
Pt   28.811689   21.849392   18.183823
Pt   27.262466   23.560478   19.907933
Pt   29.590611   22.144109   20.900565
Pt   29.900179   24.355067   19.092191
Pt   26.926455   21.362558   21.696518
Pt   25.380325   23.041386   23.429894
Pt   27.702705   21.661315   24.441943
Pt   28.019373   23.828098   22.637939
Pt   25.060205   20.857345   25.261652
Pt   23.548168   22.554755   26.996468
Pt   25.848561   21.124300   28.028727
Pt   26.151542   23.330578   26.163152
Pt   23.245005   20.338407   28.818698
Pt   21.694758   22.051721   30.485038
Pt   23.987691   20.629109   31.532057
Pt   24.313287   22.841343   29.750877
Pt   18.313437   20.985093   28.571797
Pt   22.462046   22.332167   33.044468
Pt   31.545209   24.795130   15.663082
Pt   27.929317   27.949601   16.305250
Pt   30.200249   26.556965   17.283025
Pt   27.608458   25.791415   18.109192
Pt   26.103782   27.467469   19.807588
Pt   28.386024   26.070711   20.820067
Pt   28.704703   28.245710   19.020591
Pt   25.736055   25.248935   21.620255
Pt   24.223276   26.920077   23.377916
Pt   26.484294   25.508147   24.357225
Pt   26.876199   27.741667   22.540846
Pt   23.861517   24.744368   25.193000
Pt   22.348842   26.454826   26.970443
Pt   24.633643   25.063347   27.956955
Pt   24.973441   27.231023   26.158875
Pt   22.034326   24.283939   28.749823
Pt   20.515389   25.943835   30.469006
Pt   22.781753   24.548466   31.463555
Pt   23.122436   26.737418   29.678745
Pt   20.201415   23.706156   32.126457
Pt   26.424262   29.623326   18.013996
Pt   24.928333   31.275025   19.749093
Pt   27.211421   29.903001   20.738388
Pt   24.606952   29.113210   21.545750
Pt   24.131290   33.009364   24.195663
Pt   25.338488   29.398018   24.313498
Pt   23.044375   30.719806   23.302223
Pt   22.706536   28.600063   25.170519
Pt   21.190876   30.262991   26.888029
Pt   23.461796   28.889983   27.892463
Pt   23.802839   31.044601   26.076153
Pt   20.836756   28.112319   28.684917
Pt   22.638471   32.458930   18.830087
Pt   23.373165   32.797453   21.509713
Pt   20.769983   32.100001   22.310624
Pt   31.027030   16.424286   25.461802
Pt   31.839919   20.756929   21.835659
Pt   30.383831   16.119825   22.745457
Pt   30.014306   20.281954   25.460212
Pt   32.112082   18.817449   26.366536
Pt   31.485454   18.528542   23.658582
Pt   29.615514   18.070271   27.274862
Pt   28.120212   19.760141   29.015399
Pt   30.670740   20.529953   28.155734
Pt   32.377857   25.103765   18.282609
Pt   32.173226   22.933108   20.052715
Pt   30.636510   24.623919   21.829220
Pt   32.879240   23.244037   22.755509
Pt   33.059979   25.379396   20.943380
Pt   30.379448   22.467318   23.672505
Pt   28.818607   24.154644   25.392376
Pt   32.592691   20.937423   24.494475
Pt   28.570148   30.319434   26.138210
Pt   28.459992   21.954102   27.197907
Pt   26.900040   23.625219   28.903195
Pt   29.101606   22.242604   29.847537
Pt   33.448101   23.308538   25.398200
Pt   26.590997   21.414815   30.741429
Pt   25.026867   23.108042   32.350753
Pt   27.547051   23.872891   31.498492
Pt   30.968483   26.850306   19.990881
Pt   31.641906   27.055647   22.689690
Pt   30.125193   28.709926   24.457685
Pt   29.143253   26.308157   23.572947
Pt   27.590150   27.969087   25.289389
Pt   29.854960   26.598716   26.297224
Pt   29.477992   28.514478   21.749619
Pt   27.265732   25.811188   27.112863
Pt   25.739510   27.507684   28.870759
Pt   27.920646   26.056759   29.785498
Pt   26.382123   31.737767   25.192278
Pt   25.377851   25.335532   30.672518
Pt   27.960341   30.182159   23.468570
Pt   25.689433   31.555558   22.473976
Pt   28.283264   28.216899   27.961924
Pt   26.071896   29.672318   27.067912
Pt   31.036878   22.808226   26.452823
Pt   31.441682   24.955541   24.556763
Pt   33.088134   21.213849   27.114097
Pt   29.484981   24.452913   28.143774
