309
Generated with con2xyz
Pt   23.722611   18.319708   11.386598
Pt   24.557585   21.045716   11.352657
Pt   27.999745   15.692824   24.785369
Pt   25.798633   27.243471   24.212262
Pt   21.355792   16.759800   24.266052
Pt   22.723473   14.888279   25.862104
Pt   21.082547   20.854359   26.925363
Pt   18.562568   12.795759   24.135773
Pt   16.878295   29.261183   19.053102
Pt   22.372795   20.195467   9.887665
Pt   22.885117   18.756988   22.823649
Pt   19.347085   30.868528   16.342263
Pt   23.867318   26.302450   19.635265
Pt   19.200509   26.200912   19.353147
Pt   24.496009   12.797629   21.703911
Pt   26.413997   14.537484   14.626672
Pt   26.259088   24.673607   19.923008
Pt   16.883521   17.040046   13.750918
Pt   22.069244   25.158861   12.425778
Pt   23.512993   31.094275   22.366257
Pt   17.066300   21.953087   17.895298
Pt   19.127353   23.819449   20.904361
Pt   22.169764   20.305305   12.578713
Pt   19.281884   21.300742   19.546699
Pt   16.850708   22.066796   20.790487
Pt   12.676704   23.239909   14.764205
Pt   12.110529   23.484449   20.345765
Pt   18.836483   21.507570   25.322531
Pt   18.660194   21.594173   28.099824
Pt   18.175830   19.096436   15.158073
Pt   25.956080   19.155850   12.897475
Pt   23.364392   14.541191   17.170599
Pt   18.934826   16.527515   18.257567
Pt   20.229807   18.596552   19.719815
Pt   17.319790   19.538793   26.696788
Pt   19.583827   18.914960   28.265625
Pt   19.360620   16.326594   12.591225
Pt   23.315956   18.533084   17.051466
Pt   27.121092   17.380113   17.343992
Pt   13.339458   20.646006   17.682810
Pt   21.307450   20.762689   24.056403
Pt   23.515805   21.611864   25.665372
Pt   23.349132   24.110312   26.998742
Pt   24.889855   16.516270   15.781793
Pt   29.623213   21.163894   24.628594
Pt   21.104969   30.436177   23.560565
Pt   25.776248   24.852833   25.711425
Pt   27.773388   20.296001   20.221119
Pt   25.319835   19.516459   21.530366
Pt   30.162618   21.008528   18.938022
Pt   24.449358   16.756226   21.568552
Pt   22.226156   16.336256   12.722657
Pt   25.533180   19.404846   18.630061
Pt   28.310379   27.839210   20.079585
Pt   26.850906   17.522054   20.250493
Pt   21.953039   20.425424   15.444276
Pt   21.337015   30.485445   20.787773
Pt   19.070354   21.411147   22.432737
Pt   21.523641   20.654376   21.192976
Pt   23.386773   26.499921   25.496123
Pt   20.927968   23.320830   28.214735
Pt   17.274291   21.827169   14.990737
Pt   19.709800   21.065561   13.767922
Pt   16.732992   31.632643   20.334953
Pt   26.585771   22.042933   15.746168
Pt   16.450926   24.662350   25.023412
Pt   18.684200   24.011363   26.648542
Pt   19.501037   21.183481   16.660307
Pt   17.111920   24.347142   16.298675
Pt   12.044812   23.556697   23.113906
Pt   11.253132   21.275933   16.110984
Pt   14.666193   25.089983   17.569353
Pt   16.439862   22.248335   26.469136
Pt   17.763616   19.332028   20.970526
Pt   19.479555   28.460787   14.915471
Pt   14.446799   17.817999   14.955247
Pt   15.305256   20.091845   22.244605
Pt   17.981226   19.215165   18.065774
Pt   16.120120   12.506710   18.217401
Pt   14.777026   27.481983   16.026551
Pt   15.090995   15.144113   18.029848
Pt   23.433936   10.702362   17.417019
Pt   19.777909   18.787149   25.491461
Pt   26.198719   10.799380   17.651567
Pt   19.834020   14.825086   25.624906
Pt   10.830055   21.486335   21.724896
Pt   20.878238   18.264263   11.176428
Pt   23.954169   21.405450   19.900999
Pt   26.427564   17.693414   26.041138
Pt   25.565755   14.976256   25.981105
Pt   22.425907   18.972548   28.484606
Pt   31.573042   19.021395   17.647355
Pt   20.647774   18.343771   13.950392
Pt   12.756978   16.081598   19.254773
Pt   18.734018   12.574047   21.330829
Pt   21.037111   28.095590   25.156998
Pt   20.874281   20.948498   29.616556
Pt   28.626802   23.054149   20.175637
Pt   20.440505   18.476810   16.834982
Pt   31.434691   19.111200   20.579769
Pt   26.239741   14.623210   17.430230
Pt   23.622309   26.394346   22.648614
Pt   23.261837   21.697275   28.441381
Pt   25.983142   10.829809   20.456502
Pt   24.706477   12.684924   18.848010
Pt   26.014125   24.756357   22.842887
Pt   28.204856   15.609634   21.878918
Pt   26.315524   27.132330   18.343133
Pt   21.638109   12.717028   21.489088
Pt   19.776981   23.459830   12.248039
Pt   21.871104   25.313705   15.205914
Pt   23.670391   28.737582   21.049553
Pt   21.578470   23.039969   19.661051
Pt   26.414456   26.849153   15.509805
Pt   21.142960   23.262745   25.436905
Pt   28.678507   25.231593   15.816780
Pt   21.609972   30.337569   17.935484
Pt   21.265151   28.029781   22.354550
Pt   16.666579   24.573532   22.186611
Pt   21.712974   30.055706   15.178291
Pt   25.811525   29.536688   22.622787
Pt   20.980911   25.706587   26.697760
Pt   28.430861   25.520339   21.524006
Pt   18.489025   16.737256   24.014960
Pt   21.731900   27.799163   16.601285
Pt   23.730844   21.518313   22.766353
Pt   18.891789   23.926577   23.821348
Pt   21.796018   22.926549   16.764288
Pt   15.076770   22.474695   13.462743
Pt   18.405607   18.993264   12.333515
Pt   14.692565   29.883062   17.462617
Pt   14.394816   22.813187   22.020988
Pt   14.605442   22.731150   19.135805
Pt   14.477098   29.988963   20.243723
Pt   12.554114   25.754001   16.019213
Pt   20.009799   18.702745   22.609984
Pt   17.620507   14.466164   16.826977
Pt   20.706909   14.395602   14.126277
Pt   12.282999   28.271894   20.139258
Pt   19.632837   25.962203   13.568486
Pt   15.094901   20.206061   25.079319
Pt   23.539506   18.403662   14.166391
Pt   12.124041   25.967669   21.665820
Pt   23.217526   10.724913   20.250317
Pt   10.970069   21.352660   18.913264
Pt   25.109595   19.601323   24.442306
Pt   19.135887   16.402244   15.368947
Pt   16.462438   17.213344   19.490996
Pt   19.339157   23.700002   17.994660
Pt   13.797555   18.144838   23.613507
Pt   24.664767   16.644756   18.670336
Pt   21.851137   12.584640   18.630419
Pt   21.576905   16.682864   21.363828
Pt   18.995636   12.510884   18.430696
Pt   26.026163   14.736129   20.303509
Pt   15.965075   19.768665   13.544443
Pt   19.205096   12.465899   15.525445
Pt   14.228142   25.315363   23.375051
Pt   20.592093   10.613440   17.148739
Pt   20.234742   10.906265   22.913644
Pt   28.156030   20.033958   14.471936
Pt   16.994739   14.809465   25.298801
Pt   27.289544   20.469342   25.983902
Pt   25.784836   11.023640   23.255088
Pt   17.832396   14.398515   14.009815
Pt   20.064034   14.689296   22.783025
Pt   20.504466   14.473778   16.973959
Pt   25.932891   22.358136   24.343665
Pt   16.023656   17.471112   25.220141
Pt   24.435130   23.562617   12.605079
Pt   29.863341   13.572995   17.808781
Pt   25.678716   22.447382   27.138977
Pt   29.464983   13.819920   23.422609
Pt   30.310768   16.485961   23.445929
Pt   25.803474   14.843112   23.186210
Pt   28.052595   23.184047   25.784709
Pt   22.927475   14.766463   23.019401
Pt   23.134871   14.711471   20.086842
Pt   32.711421   17.229685   19.212859
Pt   26.397599   22.162364   18.613147
Pt   27.301872   17.252743   14.497026
Pt   28.070602   27.902959   22.834850
Pt   28.834284   22.947229   17.350644
Pt   26.187987   22.281203   21.466861
Pt   28.571659   25.470551   18.644393
Pt   28.091330   25.597298   24.348799
Pt   28.897336   22.772727   14.571729
Pt   19.301281   28.590858   17.788732
Pt   12.226899   25.870128   18.833621
Pt   18.872383   31.084202   21.983235
Pt   18.819459   28.803215   23.593318
Pt   26.749899   21.906656   12.943248
Pt   28.411677   23.136001   23.043089
Pt   24.276079   26.077270   13.920627
Pt   17.056796   29.205231   16.135189
Pt   18.749671   26.411742   25.135341
Pt   18.967932   26.315126   22.293436
Pt   21.370759   23.160645   22.537463
Pt   24.161569   21.289798   17.017715
Pt   19.072014   28.700253   20.719382
Pt   14.599105   27.540146   18.948828
Pt   21.199207   25.644233   23.916019
Pt   23.980487   28.756343   18.109784
Pt   16.904879   24.463388   19.245102
Pt   17.518664   21.704296   12.219298
Pt   16.531941   27.051979   23.512323
Pt   19.554670   23.591174   15.073747
Pt   19.026265   8.962969   18.508038
Pt   20.254695   14.610164   19.888427
Pt   14.442335   25.201874   20.508025
Pt   12.325907   23.377840   17.508672
Pt   21.911310   27.664276   13.768612
Pt   29.059387   18.349913   21.835846
Pt   12.873934   20.864272   23.437570
Pt   16.604693   29.428944   21.962951
Pt   18.725635   16.651948   21.121533
Pt   11.687322   18.838235   21.911679
Pt   17.518758   19.430661   23.871525
Pt   14.257127   17.938674   17.859170
Pt   14.043584   18.044372   20.711583
Pt   11.813551   18.701938   19.082452
Pt   12.622063   16.216680   22.069194
Pt   15.821733   12.879030   23.775429
Pt   12.495051   28.167251   17.371206
Pt   17.693022   10.625275   16.936328
Pt   16.650827   17.138117   16.594813
Pt   13.037899   16.008590   16.446200
Pt   23.587603   14.445643   14.331143
Pt   14.878353   15.234104   20.878320
Pt   15.748880   19.867451   16.380463
Pt   15.384700   15.120175   15.214249
Pt   27.411011   12.783710   21.903948
Pt   24.295982   12.883892   24.606324
Pt   22.084295   12.495179   15.738891
Pt   23.104243   18.645632   19.938254
Pt   21.790478   16.569948   18.454853
Pt   24.937629   12.547943   15.954353
Pt   25.772108   19.269319   15.730050
Pt   21.432586   12.830486   24.407589
Pt   21.740703   20.543999   18.311975
Pt   22.014129   16.430341   15.552211
Pt   29.333587   18.230822   18.971952
Pt   17.211154   14.703439   22.479180
Pt   18.291060   16.865875   26.789478
Pt   23.005678   10.924488   23.074888
Pt   30.781883   16.224408   17.693311
Pt   28.641992   15.353841   16.110743
Pt   17.195002   26.714648   14.780595
Pt   26.665819   17.602419   23.196537
Pt   29.492853   18.126154   16.062569
Pt   26.420802   24.562259   17.079365
Pt   19.958041   20.941450   10.997377
Pt   26.638327   24.425832   14.174188
Pt   24.230660   16.847665   24.466745
Pt   21.440298   25.546006   20.990266
Pt   24.003244   23.783402   18.355945
Pt   25.070518   16.431790   12.999474
Pt   21.635338   25.409958   18.117903
Pt   24.239493   23.703372   15.440865
Pt   30.248675   20.875363   16.093107
Pt   23.583135   24.024676   24.166386
Pt   24.869078   19.705161   27.271553
Pt   19.415002   26.086972   16.407569
Pt   22.664019   18.843829   25.711466
Pt   24.389271   21.175472   14.135133
Pt   14.886128   24.984045   14.701166
Pt   21.520923   27.959092   19.436668
Pt   23.765205   31.027281   19.616033
Pt   14.330534   27.704538   21.861352
Pt   26.061796   29.481840   19.850343
Pt   24.087042   26.205024   16.804784
Pt   16.213866   17.362763   22.376142
Pt   26.003280   27.108282   21.287248
Pt   22.018721   22.819824   13.874528
Pt   12.108406   18.626238   16.264226
Pt   16.997729   26.820756   17.631387
Pt   27.733046   12.674661   16.304824
Pt   23.447433   28.880721   23.968047
Pt   16.949718   31.524693   17.573799
Pt   17.327849   24.218628   13.462236
Pt   14.754017   15.431778   23.698096
Pt   14.830428   22.593168   16.253258
Pt   21.137880   16.881814   27.091271
Pt   17.381787   14.536702   19.660883
Pt   16.616965   22.159816   23.692444
Pt   22.226836   22.667269   11.097962
Pt   14.218335   22.908206   24.817293
Pt   17.453823   10.672736   19.768261
Pt   16.765130   26.937423   20.665090
Pt   16.411074   12.523085   15.449553
Pt   13.526747   20.534637   14.779957
Pt   13.124139   20.753611   20.538082
Pt   15.589893   20.002080   19.317476
Pt   29.945685   21.119285   21.810654
Pt   27.121264   13.006437   24.660165
Pt   20.368785   10.630472   20.084515
Pt   15.955505   12.624394   21.051320
Pt   27.975034   20.144613   17.347736
Pt   23.805781   23.923776   21.235063
Pt   28.438138   15.500789   19.015746
Pt   23.994297   16.978117   27.243905
Pt   27.532811   20.367754   23.113533
Pt   28.838552   18.448583   24.759723
Pt   31.081334   19.186902   23.389867
Pt   24.061032   28.488611   15.276685
Pt   29.737594   13.668726   20.624873
Pt   27.613497   12.672339   19.090982
Pt   30.657608   16.314440   20.632014
Pt   19.147095   31.085612   19.144153
