56
Generated with con2xyz
Au   16.961596   17.098337   10.412422
Au   17.759523   15.259167   12.294098
Au   16.758713   16.992893   15.584856
Au   16.243216   16.582493   18.498856
Au   15.852111   16.273630   21.239056
Au   19.327514   15.786379   10.005393
Au   19.199718   18.282868   14.704684
Au   18.842652   17.215202   17.360099
Au   18.399348   16.808318   20.268220
Au   14.579688   17.793297   11.606515
Au   14.644185   19.002540   14.068217
Au   16.671286   19.208926   17.587080
Au   16.276652   18.716400   20.243105
Au   15.044335   15.190714   11.465878
Au   14.573469   16.204687   14.063286
Au   14.317657   17.776249   16.693129
Au   13.820523   17.278382   19.677375
Au   16.498411   12.848441   11.637972
Au   16.511127   14.105935   14.505055
Au   14.877441   14.922664   16.666262
Au   14.478847   14.607600   19.536272
Au   17.005169   14.540875   9.609313
Au   19.130856   15.464336   14.817337
Au   17.652128   14.589181   17.105914
Au   17.230945   14.320526   19.944376
Au   19.523635   17.412227   12.144292
Au   21.438015   16.806786   14.196561
Au   20.878152   17.365764   19.060046
Au   16.947602   17.896087   12.999563
Au   21.221285   15.727352   16.754332
Au   21.244288   18.391303   16.549872
Au   17.033780   19.900738   14.993640
Au   19.148095   20.046871   16.767272
Au   18.872831   19.233429   19.292063
Au   12.355029   17.931760   13.076687
Au   12.353311   19.391583   15.475611
Au   14.169495   19.724398   18.714252
Au   12.467941   15.267623   12.793868
Au   12.061871   16.696821   15.409491
Au   11.966147   18.299502   17.889334
Au   14.248574   13.223394   13.201018
Au   12.681207   14.073104   15.268341
Au   12.501128   15.639696   17.869074
Au   16.441783   11.381306   13.787239
Au   14.756083   12.226344   15.714544
Au   13.161110   13.011393   17.757522
Au   19.043544   13.219198   10.869536
Au   17.587512   11.983304   16.088397
Au   15.869562   12.655133   18.186163
Au   21.608674   14.117348   14.584908
Au   18.870929   12.962549   13.653177
Au   18.570790   12.388914   18.608270
Au   20.562543   14.917230   12.308934
Au   19.980506   13.245146   16.462523
Au   19.766217   14.848705   18.885155
Au   14.668205   20.581923   16.253536
