56
Generated with con2xyz
Au   13.589025   14.694569   10.429159
Au   14.244228   14.342418   12.952676
Au   14.788218   13.925075   15.606533
Au   15.548750   14.142925   18.290564
Au   16.558847   12.002935   19.576722
Au   15.859825   15.995634   11.325767
Au   16.574993   15.575799   13.999839
Au   16.082926   16.383615   16.648623
Au   16.822157   16.545989   19.312417
Au   13.269067   16.816304   12.128368
Au   14.014070   16.572442   14.745416
Au   13.399793   15.729394   17.359916
Au   14.193638   15.955904   20.046933
Au   11.640395   13.813377   12.496002
Au   12.024956   14.518757   15.136712
Au   13.041143   12.826537   17.370122
Au   13.885075   13.218905   20.280756
Au   13.525345   12.122124   11.373204
Au   13.186440   11.989266   14.250448
Au   14.106443   10.897507   18.986244
Au   18.274911   14.208918   18.903637
Au   16.027032   13.275060   10.996245
Au   16.436389   12.698722   13.721873
Au   17.514936   13.892617   16.137890
Au   18.763702   16.345389   17.207130
Au   19.344821   12.994620   14.218435
Au   17.749133   17.949575   15.020841
Au   17.247982   18.647542   17.606255
Au   15.664886   18.108651   13.084097
Au   15.222958   18.925564   15.727506
Au   14.652642   18.105957   18.339882
Au   13.182982   18.993469   13.826393
Au   12.577543   18.304603   16.442772
Au   12.077093   17.434782   19.014729
Au   11.387071   17.045827   14.287560
Au   10.770216   16.267231   16.914339
Au   11.751405   14.726613   19.296987
Au   10.473301   12.320522   14.735787
Au   10.399553   13.568707   17.246800
Au   11.568100   12.015018   19.443883
Au   11.174888   11.177158   12.379658
Au   10.984432   10.939626   17.045231
Au   13.504469   10.181131   16.437780
Au   15.847792   11.621328   16.909092
Au   13.422616   9.702873   12.723202
Au   11.509913   9.781453   14.647248
Au   15.407986   10.213392   14.512530
Au   15.810793   10.694150   11.876413
Au   17.931993   10.961256   15.189465
Au   16.318223   14.370028   20.884446
Au   18.261043   11.753122   12.044336
Au   18.543120   11.853771   17.646512
Au   20.079103   13.983754   16.731694
Au   18.243398   14.446675   12.142115
Au   18.155687   17.138624   12.449602
Au   19.272692   15.666666   14.591471
