56
Generated with con2xyz
Au   14.732380   22.056980   16.595459
Au   12.749941   19.868091   19.015206
Au   15.682775   17.309952   19.326907
Au   13.334938   17.571957   17.590632
Au   14.188576   15.309788   16.205619
Au   15.828615   15.975070   14.055426
Au   15.910468   14.911568   20.647218
Au   16.311778   13.676770   15.433447
Au   16.320198   14.890604   17.897905
Au   18.447333   14.579433   19.540994
Au   15.539375   18.361360   12.776060
Au   13.793757   17.707993   14.845718
Au   15.282689   19.732580   17.953573
Au   15.978699   17.402477   16.523235
Au   17.256851   20.441447   13.010582
Au   13.046180   19.956660   16.311677
Au   18.966417   21.155499   22.269707
Au   17.807017   16.810005   21.113304
Au   17.615586   19.470915   19.698020
Au   19.214590   21.811490   19.703613
Au   13.137922   17.518852   20.348133
Au   14.852654   19.636351   20.791805
Au   16.670694   21.695774   20.956854
Au   16.950195   21.996875   18.172327
Au   19.477186   21.911403   16.958853
Au   14.461458   21.955381   19.322255
Au   18.436202   13.292235   17.067092
Au   17.621336   16.746063   12.101047
Au   18.011075   14.394762   13.434157
Au   18.146313   15.733757   15.833276
Au   20.155150   14.042250   15.065825
Au   19.880480   16.415212   13.651701
Au   13.817767   15.275064   18.967569
Au   15.249098   17.186926   22.026404
Au   20.320328   15.196849   17.548869
Au   19.464537   20.390065   14.601504
Au   19.365252   18.814762   12.356626
Au   21.540617   18.577249   14.036248
Au   17.746449   18.157020   14.460215
Au   17.920268   19.629949   16.889273
Au   20.064810   17.909314   16.224800
Au   21.608349   20.288009   16.304320
Au   18.337023   17.110184   18.316917
Au   22.288144   18.290664   20.570141
Au   20.378162   16.450267   20.057947
Au   20.349618   19.366724   18.719144
Au   17.079631   19.227784   22.358154
Au   15.501366   19.855555   15.082424
Au   21.429362   20.795582   20.923091
Au   17.239766   21.906329   15.384031
Au   19.723194   18.740460   21.451036
Au   21.947879   16.104826   15.441319
Au   23.376525   18.325762   15.996766
Au   21.688382   21.919631   18.512775
Au   23.156195   19.686997   18.463826
Au   22.116124   17.202198   18.053314
