56
Generated with con2xyz
Au   16.081043   15.981647   9.694593
Au   16.851535   16.351264   12.539572
Au   16.812500   16.939509   15.378023
Au   16.231037   16.497075   18.383818
Au   15.708071   16.233070   21.106210
Au   17.848445   17.834367   10.274452
Au   19.214773   18.300074   14.742833
Au   18.817380   17.124362   17.315927
Au   18.289259   16.715215   20.255368
Au   15.245977   18.118994   11.247160
Au   15.146180   18.716947   13.957308
Au   16.702723   19.093654   17.397072
Au   16.174122   18.663888   20.073368
Au   14.077841   15.638800   11.399161
Au   14.413342   15.974674   14.127605
Au   14.348666   17.638146   16.528413
Au   13.754797   17.243594   19.440568
Au   16.234143   13.852639   11.461687
Au   16.651221   14.197498   14.376841
Au   14.924977   14.777749   16.606738
Au   14.386837   14.546287   19.406499
Au   18.513159   15.194925   10.562548
Au   19.167319   15.441101   14.799078
Au   17.683890   14.476917   17.042662
Au   17.108229   14.235776   19.870523
Au   19.549560   17.112797   12.306050
Au   21.473070   16.725940   14.290734
Au   20.785648   17.270347   19.108762
Au   17.537460   19.043708   12.614662
Au   21.198945   15.636414   16.844498
Au   21.259503   18.296178   16.607075
Au   17.256257   20.241523   14.997113
Au   19.244226   20.032392   16.836180
Au   18.784752   19.137207   19.283926
Au   12.854381   17.759125   12.755281
Au   12.622679   19.275087   15.055815
Au   14.167618   19.676532   18.453541
Au   11.964985   15.180571   12.962812
Au   11.912561   16.711792   15.222642
Au   11.975052   18.296444   17.546124
Au   14.152011   13.381975   13.112871
Au   12.583232   13.999466   15.291053
Au   12.485843   15.582860   17.648920
Au   16.642174   11.795372   13.291533
Au   14.834896   12.241361   15.471505
Au   13.165155   12.874699   17.643701
Au   18.599058   12.658551   11.518720
Au   17.496651   11.901073   16.000897
Au   15.807692   12.528976   18.088626
Au   21.641800   14.046763   14.681706
Au   19.199553   12.733251   14.083813
Au   18.453497   12.260409   18.595934
Au   20.395450   14.555729   12.402082
Au   20.062652   13.121913   16.652174
Au   19.681962   14.741732   18.944260
Au   14.773044   20.507488   16.008469
