56
Generated with con2xyz
Au   15.992717   15.424216   10.323991
Au   17.465479   16.113088   12.552680
Au   16.815175   16.344631   15.250654
Au   16.557653   16.077866   18.182791
Au   16.356705   15.870240   20.910155
Au   18.599781   15.923278   10.096214
Au   19.011576   18.015680   14.538258
Au   19.077113   16.488316   17.012252
Au   18.827644   16.262504   19.851694
Au   15.103009   17.521880   11.883153
Au   15.505141   18.731331   14.361046
Au   17.148109   18.611754   16.768988
Au   16.918718   18.348210   19.711295
Au   13.569974   15.312142   11.492234
Au   14.323508   15.988859   14.093684
Au   14.544614   17.303594   16.680576
Au   14.364725   17.106134   19.574076
Au   15.172715   13.098164   11.470333
Au   16.450549   13.860400   13.960541
Au   14.921650   14.472938   16.394296
Au   14.767278   14.256500   19.286663
Au   17.794514   13.584052   11.367087
Au   19.208611   15.057834   14.551401
Au   17.712548   13.984549   16.684693
Au   17.490012   13.785909   19.535584
Au   19.777711   17.519159   11.926042
Au   21.373218   16.586068   13.921295
Au   21.261361   16.644499   18.650784
Au   17.446253   18.832724   12.353481
Au   21.181810   18.036844   16.310013
Au   19.430287   18.702058   18.662344
Au   17.665650   20.431925   14.485250
Au   19.436388   20.132831   16.429426
Au   17.464326   20.693307   18.338419
Au   12.935259   18.217006   13.448240
Au   13.309709   19.573711   15.857182
Au   14.866984   19.544183   18.332731
Au   11.717056   15.727283   13.362388
Au   11.967104   17.084686   15.707856
Au   12.415639   18.310067   18.100787
Au   13.505456   13.427847   13.508821
Au   12.195604   14.337757   15.641067
Au   12.746523   15.545451   17.978669
Au   16.644625   11.421457   12.985369
Au   14.914251   11.938765   15.276549
Au   13.275461   12.736029   17.542530
Au   19.129253   12.533563   13.470846
Au   17.594672   11.516743   15.524989
Au   15.929560   12.177224   17.811309
Au   21.603280   13.810473   13.996028
Au   20.144509   12.757724   16.023647
Au   18.632475   11.791475   18.067010
Au   20.173714   14.832360   11.973506
Au   21.492968   15.240708   16.309047
Au   19.989385   14.187172   18.403903
Au   15.692228   20.897988   16.199730
