56
Generated with con2xyz
Au   11.355363   19.158325   15.226460
Au   12.735677   14.562679   15.868833
Au   10.885919   16.603985   16.081921
Au   12.060222   15.583912   18.371194
Au   13.306655   17.273176   15.026694
Au   15.428397   21.517107   14.140373
Au   13.633412   11.976007   15.597742
Au   15.940591   11.027237   16.697464
Au   15.995918   12.636769   14.417059
Au   15.160784   11.972982   19.148925
Au   11.638550   15.649465   13.605724
Au   16.076418   14.357329   12.195122
Au   15.945807   16.505686   10.418683
Au   13.618370   13.673874   13.406914
Au   14.510530   16.316904   17.372226
Au   15.286833   13.647332   17.003959
Au   15.344961   15.334955   14.728742
Au   12.859042   12.937610   18.072547
Au   13.711390   17.250468   19.815023
Au   14.392134   14.611092   19.586980
Au   17.260182   15.655549   16.875230
Au   17.083095   14.023624   19.189282
Au   14.009632   16.245365   12.365322
Au   13.909725   18.448604   10.733252
Au   14.757380   18.908651   13.290157
Au   17.204809   21.701139   12.080958
Au   12.057264   18.245271   12.736560
Au   12.768368   20.761472   13.568163
Au   16.013888   17.986940   15.655816
Au   17.511038   19.562411   13.759818
Au   12.477349   18.249638   17.588912
Au   16.376484   16.689643   19.403787
Au   13.951573   19.933769   15.905141
Au   19.025626   20.096959   10.936750
Au   16.687095   20.535654   16.403912
Au   19.347179   19.901562   15.944008
Au   17.963469   12.936332   16.408921
Au   16.817441   16.963104   12.935832
Au   18.034382   14.620462   14.204667
Au   20.478477   15.748783   13.728633
Au   18.604297   15.408447   11.633484
Au   19.524619   17.931098   12.448598
Au   17.741248   11.461953   18.647403
Au   19.074222   16.039332   18.854995
Au   19.605902   13.424018   18.482227
Au   14.564440   21.029663   11.571756
Au   18.384853   17.550855   10.041446
Au   16.502417   19.177058   11.056422
Au   18.673266   17.289013   15.097876
Au   17.887237   18.325059   17.734602
Au   20.470609   17.622187   17.133118
Au   20.038810   20.534223   13.382490
Au   15.181569   18.915888   18.186137
Au   18.129966   22.042314   14.627307
Au   19.919748   15.050357   16.334124
Au   21.156590   18.308849   14.606945
