56
Generated with con2xyz
Au   17.833803   14.796454   10.203314
Au   16.516731   16.047846   12.286733
Au   17.857135   16.063869   14.965406
Au   17.106140   15.905834   18.207245
Au   16.728246   15.797564   20.971890
Au   15.554297   16.048467   9.633165
Au   20.271289   17.626451   14.994605
Au   19.735658   16.131385   17.293865
Au   19.214185   16.009959   20.084781
Au   15.167311   18.285052   11.311656
Au   14.993812   20.361945   13.266823
Au   17.904059   18.259841   16.695292
Au   17.449655   18.220679   19.667190
Au   13.764527   15.861326   11.608376
Au   14.599669   15.839264   14.306844
Au   15.202459   17.234421   16.652557
Au   14.911776   17.148154   19.506859
Au   15.509021   13.690757   11.186266
Au   16.597478   13.754559   14.019337
Au   15.407415   14.404577   16.569321
Au   15.122543   14.283093   19.423442
Au   18.807185   17.585929   12.712267
Au   19.006170   14.827495   12.636755
Au   18.230096   13.796923   16.560022
Au   17.788843   13.586875   19.532073
Au   17.626529   17.589985   10.280046
Au   21.996167   17.710119   17.073892
Au   21.750468   16.223916   19.269921
Au   17.302030   19.735227   12.015169
Au   20.247201   19.819227   16.595142
Au   20.023767   18.418375   18.864036
Au   16.269359   18.215838   14.152233
Au   18.657719   19.771064   14.380858
Au   18.144523   20.450363   18.166133
Au   13.377293   18.110426   13.332337
Au   13.995066   19.487437   15.646685
Au   15.579984   19.528938   18.114233
Au   11.928742   15.667598   13.508168
Au   12.487477   17.083855   15.734299
Au   13.072906   18.423852   18.000184
Au   13.713669   13.478099   13.197003
Au   12.692484   14.221658   15.651887
Au   13.217040   15.628916   17.958124
Au   15.646119   11.495663   13.013828
Au   14.524685   12.067804   15.429913
Au   13.477667   12.845754   17.839123
Au   17.834262   12.523453   11.807895
Au   17.154932   11.420618   15.493100
Au   16.118718   12.109981   17.898821
Au   20.472874   14.867308   14.914991
Au   19.188135   12.547292   14.174131
Au   18.792491   11.582764   17.899688
Au   20.780781   12.606505   16.386134
Au   22.199559   14.916322   16.993300
Au   20.361100   13.823624   18.731164
Au   16.498267   20.516068   15.764335
