56
Generated with con2xyz
Au   12.330618   18.053420   17.716599
Au   11.266135   16.001000   16.065659
Au   10.871916   18.635400   15.505953
Au   13.835550   14.921201   15.730635
Au   13.411112   17.659764   15.069169
Au   14.474248   21.118072   13.989680
Au   11.781716   13.378751   16.667948
Au   16.331657   11.952179   16.313018
Au   15.949775   11.278052   13.651240
Au   16.706948   12.838950   18.953635
Au   11.871127   14.131035   14.048292
Au   15.484818   14.224873   11.170526
Au   15.416055   16.879696   10.862310
Au   13.823940   12.812285   12.670579
Au   14.912461   17.020797   17.367220
Au   16.363351   14.644365   16.920559
Au   15.950377   13.868459   14.087084
Au   14.229986   13.049592   17.856357
Au   13.854725   17.409967   19.875690
Au   15.281465   15.120194   19.480712
Au   17.715861   17.219996   16.902371
Au   18.018479   15.297544   19.057290
Au   13.914218   15.677971   12.918543
Au   12.941488   17.811116   11.450433
Au   15.959236   16.549469   14.701506
Au   15.132673   18.574844   12.979035
Au   11.384025   16.825620   13.451965
Au   12.276759   19.560770   13.419822
Au   15.990400   19.217189   15.617226
Au   18.325232   17.912955   14.234940
Au   12.775166   15.377699   18.323445
Au   16.562400   17.644473   19.512218
Au   13.160305   20.169579   16.156066
Au   16.389711   20.830655   12.001182
Au   15.485113   21.560009   16.709141
Au   18.841493   20.170469   15.720707
Au   13.812010   12.178966   15.246614
Au   17.442830   15.720251   12.397152
Au   17.589581   12.889407   12.083830
Au   18.405816   12.365663   14.560849
Au   20.697210   13.654992   15.377763
Au   19.797875   14.312672   12.886722
Au   18.730093   13.187978   17.202422
Au   19.238528   17.767219   19.005871
Au   20.076951   15.589653   17.287919
Au   13.841813   20.353230   11.389219
Au   17.580506   18.378823   11.572964
Au   19.891632   17.019757   12.221504
Au   18.394155   15.122772   15.062105
Au   17.393518   19.753889   17.971081
Au   20.366641   18.162104   16.573005
Au   18.852203   20.339264   12.965034
Au   14.703618   19.552912   18.358920
Au   17.031548   21.682212   14.502452
Au   20.870833   16.269054   14.630729
Au   20.845142   18.915595   14.011838
