56
Generated with con2xyz
Au   17.361655   17.328241   15.994703
Au   19.343582   16.919245   14.063116
Au   19.874247   16.608152   16.983304
Au   14.524735   17.301394   15.790293
Au   15.509650   16.660125   18.398922
Au   16.317522   19.296913   17.672025
Au   19.129137   19.434209   17.157275
Au   15.756655   14.700327   16.351974
Au   18.417452   14.634028   15.480875
Au   17.816484   14.947701   18.217197
Au   18.116834   17.586349   19.047984
Au   16.244625   15.827106   13.829265
Au   15.970847   19.532972   14.827672
Au   21.829718   16.117169   15.029721
Au   22.324415   15.940988   17.759481
Au   20.695569   16.934227   19.856422
Au   10.743537   19.249317   14.112374
Au   12.773504   16.579937   17.809476
Au   13.780340   16.079384   20.379179
Au   14.812794   21.362019   16.539334
Au   17.465631   21.407723   16.125491
Au   21.076940   18.640335   15.368442
Au   14.221278   12.391026   16.404937
Au   14.962856   13.299621   13.988506
Au   19.567335   12.156393   14.827611
Au   18.272832   12.886717   20.031233
Au   16.337824   16.986609   21.174179
Au   17.026199   19.636502   20.597038
Au   15.800586   14.097231   11.536230
Au   13.734961   15.423125   12.805858
Au   17.233074   18.151754   12.736873
Au   18.603608   15.409034   20.881418
Au   18.883712   17.966756   21.698487
Au   20.264011   14.410470   13.500352
Au   15.677985   16.664097   11.146558
Au   15.986150   14.443699   20.265086
Au   14.512378   18.675428   20.105717
Au   13.163333   14.826260   15.589049
Au   14.431213   18.050820   13.081174
Au   21.629297   18.572326   17.983106
Au   19.792942   19.639261   19.808491
Au   12.156528   17.059181   14.336740
Au   13.528242   19.262570   17.684346
Au   21.002911   13.950625   16.307755
Au   20.402214   14.367344   18.959310
Au   11.259067   18.394615   16.488195
Au   13.935970   14.207061   18.391901
Au   15.161820   21.163421   19.205536
Au   17.872602   21.358438   18.754427
Au   16.227132   12.583114   18.245209
Au   18.938028   12.496849   17.442276
Au   13.176704   19.677266   14.975535
Au   18.697353   19.593306   14.482410
Au   16.898540   12.186925   15.608312
Au   17.718648   13.251913   13.184855
Au   18.149746   15.616962   11.914747
