56
Generated with con2xyz
Au   17.632892   17.575319   16.577167
Au   19.127117   16.888372   13.698166
Au   20.923523   15.776236   17.583573
Au   14.761258   17.175680   16.270344
Au   15.806726   16.886816   18.887613
Au   15.916705   19.546473   17.676733
Au   18.806414   20.002560   17.250250
Au   16.190922   14.871113   16.989735
Au   18.741263   15.134870   15.861874
Au   18.375666   15.611732   18.719847
Au   18.174855   18.266915   19.408266
Au   16.480715   15.975474   14.334285
Au   16.101952   18.826106   14.502615
Au   21.253446   15.416327   14.887525
Au   22.335395   16.656800   19.699688
Au   20.675582   18.244300   21.113771
Au   12.107202   17.114579   15.908518
Au   13.038892   16.793745   18.430961
Au   13.986262   16.363786   20.939497
Au   14.680980   21.999884   16.752885
Au   16.993398   21.289099   15.628578
Au   20.328584   17.846730   15.927456
Au   14.949134   12.434183   17.366711
Au   17.495222   12.532523   16.257332
Au   20.001085   12.943593   15.060423
Au   19.090364   13.909381   20.680278
Au   16.173843   17.807759   21.516838
Au   16.596512   20.315051   20.428057
Au   15.330920   14.304314   12.352284
Au   15.122190   16.989022   12.154098
Au   16.999099   20.992229   12.951568
Au   18.598910   16.514763   21.565719
Au   18.429954   19.250842   22.082136
Au   19.924229   14.457249   12.816916
Au   17.453641   18.416654   12.146673
Au   16.460811   15.025478   20.860385
Au   14.188500   18.879568   19.837066
Au   13.660205   15.672623   14.101533
Au   14.948735   19.644358   11.985242
Au   20.796434   18.544089   18.480273
Au   19.353593   20.583516   19.887798
Au   13.421934   18.427421   13.928815
Au   13.462252   19.565128   16.427734
Au   21.530540   14.077291   19.583433
Au   21.063943   15.547541   21.720179
Au   13.374871   14.702924   16.644152
Au   14.424368   14.387751   19.152850
Au   14.504424   21.461281   19.271238
Au   17.073062   21.912808   18.309211
Au   17.054667   13.115025   18.970111
Au   19.607265   13.288191   17.840296
Au   14.496141   21.012555   14.269482
Au   18.757697   19.517913   14.454755
Au   15.120134   13.410493   14.874148
Au   17.617721   13.497180   13.692412
Au   17.606447   15.630459   11.824072
