56
Generated with con2xyz
Au   14.857130   12.908346   9.836299
Au   14.727898   13.120054   12.631554
Au   14.669430   13.280296   15.550153
Au   14.790935   14.539339   18.076603
Au   14.820482   15.683632   20.496101
Au   17.048349   13.782118   11.198815
Au   17.033141   13.993265   14.140101
Au   16.164285   15.991075   16.035202
Au   16.212495   17.149844   18.569524
Au   14.825637   15.425756   10.828047
Au   14.814985   15.761348   13.610588
Au   13.348339   15.978082   16.070093
Au   13.474572   17.182429   18.581113
Au   12.533605   13.923881   11.039703
Au   12.492244   14.221499   13.926766
Au   11.863734   13.706524   16.780159
Au   10.974284   16.311702   17.644209
Au   13.283741   11.212145   11.205016
Au   12.814861   11.471631   14.151887
Au   14.099483   11.835954   17.849448
Au   14.090704   13.027801   20.349755
Au   16.070115   11.070746   11.451425
Au   16.126507   11.244284   14.203018
Au   17.274305   13.590332   16.977378
Au   17.206643   14.847984   19.481598
Au   19.214954   14.628220   12.730831
Au   18.461374   16.595154   14.576546
Au   17.551855   18.355961   16.500716
Au   17.111753   16.339633   12.203045
Au   16.201679   18.164848   14.142168
Au   14.800741   18.434064   16.513751
Au   14.813276   17.911971   11.842813
Au   13.354278   18.085849   14.151831
Au   12.070150   18.408379   16.454375
Au   12.496517   16.441197   12.169482
Au   10.930769   16.281321   14.807612
Au   9.109245   14.877143   16.421060
Au   10.318771   14.884474   12.435922
Au   10.013172   13.237612   14.583019
Au   9.816655   14.124158   18.867193
Au   10.867513   12.153005   12.255668
Au   9.592256   12.178982   17.050850
Au   11.673780   12.196266   19.066861
Au   12.357492   14.844440   19.490809
Au   11.582286   9.529313   12.405768
Au   10.205450   10.545080   14.525364
Au   11.851288   10.763160   16.690929
Au   12.215667   8.744794   14.826533
Au   14.378220   9.894516   15.846399
Au   16.579467   10.959783   16.938389
Au   14.294220   9.480279   13.065126
Au   18.576919   11.801765   15.326947
Au   16.399477   12.324532   19.264154
Au   18.356923   12.004593   12.688172
Au   19.503329   14.293402   15.430606
Au   18.561463   16.019225   17.376919
