56
Generated with con2xyz
Au   12.280546   18.299346   15.823421
Au   10.538258   18.290663   17.819471
Au   14.126944   17.944712   17.829567
Au   13.957614   16.085913   15.611190
Au   15.781091   13.957482   15.517494
Au   15.953603   16.052717   13.665950
Au   13.875123   15.701235   19.685367
Au   15.722049   13.675390   19.418034
Au   15.933200   15.742269   17.659979
Au   15.894983   15.424700   21.526822
Au   16.237411   18.233677   11.959065
Au   14.257253   18.280558   13.888807
Au   14.348241   20.133941   15.989776
Au   16.142543   17.939075   15.825606
Au   16.380144   20.101842   14.001488
Au   12.057869   16.129710   17.632838
Au   14.304182   19.776773   20.075447
Au   16.112850   17.550112   19.815412
Au   16.353630   19.761085   18.042871
Au   12.230910   17.939210   19.827143
Au   14.182487   17.553259   21.728071
Au   16.300048   19.271103   21.916911
Au   16.523256   21.872691   16.155855
Au   12.449099   20.109508   18.016622
Au   16.527066   21.432012   20.209867
Au   14.594082   21.842726   18.222249
Au   17.689960   13.581224   17.475414
Au   18.020379   16.032177   11.816356
Au   17.783407   13.972599   13.622519
Au   17.950150   15.711160   15.693977
Au   19.684333   13.614335   15.557695
Au   20.023085   15.609078   13.687865
Au   13.835277   14.037273   17.468702
Au   17.936903   15.281645   19.693146
Au   19.930928   15.254060   17.750207
Au   18.273895   18.163701   10.267743
Au   18.448760   20.014599   12.149450
Au   20.236316   17.815590   12.012112
Au   18.193539   17.881489   13.858338
Au   18.382021   19.730623   16.060510
Au   20.129115   17.491322   15.895143
Au   20.460739   19.683404   14.057027
Au   18.180870   17.529270   17.916633
Au   18.372276   19.320823   20.115093
Au   20.063779   17.106542   19.848140
Au   20.403672   19.293014   18.130431
Au   18.025921   17.135853   21.721744
Au   18.630729   21.779334   14.270392
Au   16.796671   23.392442   18.357158
Au   18.741415   23.362217   16.451863
Au   18.629780   21.435717   18.315620
Au   21.815089   15.335451   15.751000
Au   22.087235   17.435977   14.012356
Au   20.570203   21.371339   16.253433
Au   22.252201   19.187325   16.102445
Au   21.985968   17.080951   17.855184
