56
Generated with con2xyz
Au   14.269578   14.718294   10.124967
Au   14.669720   14.243972   12.849347
Au   15.290000   13.420726   16.026197
Au   14.817798   14.443748   18.798278
Au   14.528554   15.136607   21.522763
Au   16.824054   15.048462   11.327572
Au   17.196358   14.457673   14.263723
Au   16.565418   15.743428   16.926685
Au   16.283703   16.574978   19.843113
Au   14.760650   16.841228   11.712574
Au   15.105393   16.434388   14.534562
Au   13.700006   16.206526   16.941538
Au   13.478144   16.783340   19.699286
Au   12.285222   15.395475   11.822914
Au   12.660662   15.001157   14.642450
Au   12.711425   13.477839   17.098691
Au   12.317322   14.237680   20.016439
Au   12.817122   12.707123   11.505339
Au   13.337400   12.204876   14.431120
Au   12.262599   11.683239   19.231626
Au   16.789755   14.003363   20.687889
Au   15.586744   12.522339   10.808658
Au   16.054442   11.921732   13.549500
Au   17.182192   13.098438   18.169446
Au   18.487511   15.347198   18.949315
Au   19.623040   13.030592   14.151723
Au   18.650101   16.653592   15.267296
Au   17.978132   17.772607   17.881842
Au   17.257929   17.194164   13.008160
Au   16.643572   18.442142   15.603328
Au   15.246993   18.238618   17.979246
Au   15.177969   18.950353   13.343497
Au   13.825036   18.739697   15.670270
Au   12.417529   18.470268   17.956385
Au   12.731603   17.593292   13.419723
Au   11.349854   17.284790   15.782980
Au   11.245673   15.880148   18.155484
Au   10.351696   16.127306   13.559343
Au   10.234227   14.678329   15.885959
Au   10.322320   13.262194   18.215727
Au   10.842098   13.445915   13.291496
Au   10.789058   12.042793   15.610175
Au   12.750035   10.641905   16.759861
Au   14.379938   12.579472   20.793259
Au   11.528538   10.819460   13.074765
Au   13.382154   9.390354   14.419433
Au   16.047756   9.160173   13.664687
Au   14.183770   10.448031   12.095389
Au   18.467423   10.574639   13.563226
Au   15.355466   10.548436   15.879898
Au   16.918714   10.286404   11.414880
Au   17.741046   11.945648   15.777940
Au   14.799576   11.699232   18.271152
Au   18.156835   12.772111   11.926994
Au   19.197363   15.298233   12.746106
Au   18.993623   14.298651   16.481879
