56
Generated with con2xyz
Au   17.035750   17.654766   15.704906
Au   17.055600   15.032237   14.418363
Au   19.664141   16.918230   16.713084
Au   14.208755   18.139178   15.961265
Au   15.297865   16.865629   18.310836
Au   16.152538   19.531994   17.724066
Au   18.973314   19.619742   17.069545
Au   14.796838   15.358865   16.015673
Au   17.523302   12.557911   15.834755
Au   17.398280   15.190583   17.299199
Au   17.945640   17.614590   18.792511
Au   14.987143   16.726264   13.543083
Au   15.940522   20.171850   14.955098
Au   21.627112   16.141169   14.736712
Au   22.248229   16.260615   17.377215
Au   20.590805   16.926222   19.485186
Au   11.569206   18.732618   16.256818
Au   12.603890   17.477421   18.455108
Au   13.776450   16.197664   20.588491
Au   15.101697   21.942307   16.915046
Au   17.680239   21.812649   16.163737
Au   20.964762   18.725790   15.157616
Au   12.870317   13.330616   16.155535
Au   15.051022   12.919377   14.615517
Au   21.673230   13.678862   13.677442
Au   17.945478   12.907181   18.569983
Au   16.328192   16.892427   21.001416
Au   17.053899   19.570262   20.578515
Au   15.288033   14.301238   12.308427
Au   17.278596   16.076971   11.921071
Au   16.861696   18.541742   12.903435
Au   18.410947   15.230205   20.112749
Au   18.869910   17.656943   21.432260
Au   19.570903   14.449364   15.442210
Au   19.300499   14.461936   12.702992
Au   15.836616   14.493087   19.657504
Au   14.457280   18.804020   20.111611
Au   13.069047   14.785475   13.889491
Au   14.148792   19.273765   13.162215
Au   21.498338   18.821170   17.791900
Au   19.692866   19.591527   19.727152
Au   12.349160   17.485708   13.982922
Au   13.362899   20.074283   17.921624
Au   22.098387   13.802530   16.291641
Au   20.204243   14.503876   18.186733
Au   12.089897   15.995160   16.208003
Au   13.353757   14.755588   18.380332
Au   15.214356   21.365219   19.550810
Au   17.812115   21.470450   18.801741
Au   15.354039   13.036809   17.420308
Au   20.008647   12.124866   16.872535
Au   13.231033   20.643459   15.278966
Au   18.634053   19.815248   14.411748
Au   19.661684   12.024893   14.157673
Au   17.300535   12.658997   13.038585
Au   19.067301   17.032415   13.898813
