56
Generated with con2xyz
Au   12.286559   17.622990   19.476028
Au   10.706760   19.429433   15.344729
Au   10.799836   16.788858   14.449890
Au   12.140547   19.686924   17.702762
Au   10.738477   17.368113   17.195340
Au   12.781269   12.694486   15.378319
Au   11.222840   14.169177   13.511085
Au   12.693551   13.299209   18.117243
Au   10.976291   15.284364   18.973762
Au   15.032006   14.018509   16.660363
Au   14.523444   11.404313   17.154797
Au   11.070201   16.328504   11.760505
Au   10.837968   18.915531   12.682785
Au   15.141856   20.902913   12.409122
Au   13.282546   15.403645   14.761464
Au   13.176072   17.558209   12.948940
Au   11.030730   14.685543   16.280894
Au   15.329874   18.878511   14.186420
Au   13.191983   15.986861   17.516641
Au   13.038169   18.118196   15.703142
Au   12.890619   20.298477   13.893680
Au   14.550155   18.442579   18.125063
Au   18.072806   16.729384   17.196915
Au   13.048729   19.650561   11.220037
Au   17.600489   19.645685   12.655340
Au   20.220239   17.415936   15.599611
Au   19.947827   18.265149   13.045874
Au   14.618570   10.891578   14.408140
Au   15.688988   15.652450   10.561200
Au   13.029782   12.245658   12.672465
Au   15.131324   13.506714   13.862462
Au   16.879901   11.643763   12.919934
Au   15.276192   12.990243   11.192739
Au   16.805663   11.990028   15.630680
Au   13.441119   15.155823   20.078059
Au   17.585704   14.107360   17.892447
Au   13.304355   17.072428   10.282429
Au   19.032665   12.906483   14.189159
Au   13.386966   14.853199   11.901627
Au   15.622091   16.182634   13.214067
Au   17.466085   14.252198   12.289919
Au   18.984863   19.851751   15.043854
Au   17.327889   14.782408   15.146433
Au   15.725650   15.946743   18.748963
Au   16.818574   19.198131   16.621650
Au   19.823475   14.788395   16.218453
Au   15.208649   13.245951   19.257222
Au   15.484915   18.345161   11.350548
Au   15.520645   16.763701   16.095310
Au   16.625819   21.180471   14.728434
Au   14.396311   20.484921   16.261686
Au   17.888957   16.963731   11.747950
Au   19.569575   15.585708   13.582655
Au   17.750208   17.501390   14.503494
Au   16.999207   11.508514   18.265448
Au   19.201560   12.247308   16.818620
