56
Generated with con2xyz
Au   13.045052   18.165224   19.433231
Au   9.284283   16.788314   16.762846
Au   12.002132   16.704953   17.236244
Au   10.366666   18.210612   18.788789
Au   10.254971   15.427058   18.884523
Au   12.212524   12.126257   15.978373
Au   12.408510   14.229504   14.185745
Au   11.677901   13.126522   18.495394
Au   12.927636   15.347033   19.536283
Au   13.499395   14.332155   16.845320
Au   14.909072   11.955824   16.526306
Au   12.764072   16.524978   12.504810
Au   10.991439   16.640659   14.629320
Au   10.816579   19.009466   16.165766
Au   13.794535   16.490357   15.067830
Au   12.615793   18.866235   14.033964
Au   10.645887   14.412746   16.328999
Au   13.593603   22.391685   17.647438
Au   14.812976   16.645929   17.802948
Au   13.636522   18.951948   16.697505
Au   11.921785   20.416412   18.263184
Au   14.694462   20.311056   18.841252
Au   15.604940   15.306279   20.040969
Au   15.354622   21.090122   16.124497
Au   12.531219   21.174976   15.568828
Au   15.740467   18.047504   19.933008
Au   16.798200   19.990197   12.612297
Au   16.288889   10.914003   14.432218
Au   16.628120   14.914170   10.823338
Au   13.881748   11.928528   13.827094
Au   15.359612   13.992294   14.706623
Au   18.749214   11.885067   13.455577
Au   16.304744   12.619446   12.390107
Au   17.663262   12.680828   15.850829
Au   14.332819   13.044102   19.098394
Au   18.890372   15.049115   16.712516
Au   14.500700   16.466162   10.443914
Au   20.619114   14.079464   12.692203
Au   14.125865   14.182878   12.037437
Au   15.664796   16.283103   12.999099
Au   17.955448   14.529184   13.715100
Au   16.912922   17.715533   11.047762
Au   16.680135   16.314452   15.702120
Au   17.542839   16.585505   18.501896
Au   18.888161   17.797196   16.286697
Au   17.772020   20.036450   15.159494
Au   16.285479   14.223187   17.606312
Au   14.480356   18.698370   11.969453
Au   15.501480   18.659991   14.615719
Au   14.403601   20.936512   13.579245
Au   16.529159   18.858872   17.320883
Au   18.675140   13.263923   11.144975
Au   19.002702   16.010949   11.690813
Au   18.049204   17.738722   13.621305
Au   20.233202   13.355504   15.173400
Au   20.075248   16.070124   14.451496
