56
Generated with con2xyz
Au   13.549549   17.567400   19.553829
Au   9.671347   17.452058   16.675467
Au   12.268635   16.717252   17.144423
Au   10.963285   18.285714   18.908716
Au   10.261218   15.576864   18.534662
Au   11.622825   12.494797   15.082818
Au   12.294329   14.775633   13.656468
Au   11.213844   13.145257   17.752864
Au   12.846639   14.829311   19.180607
Au   13.276261   14.208410   16.334220
Au   14.216449   11.687169   15.582657
Au   13.157764   17.173835   12.374834
Au   11.371374   17.316590   14.527476
Au   11.649647   19.377598   16.441785
Au   14.019266   16.557466   14.951025
Au   13.426185   19.251627   14.280338
Au   10.534312   14.953523   15.825089
Au   13.824149   21.140525   16.267446
Au   14.975548   15.969653   17.711285
Au   14.350299   18.590850   16.946483
Au   12.973176   20.120657   18.715257
Au   15.575299   19.388337   19.225687
Au   15.491665   14.144541   19.609578
Au   16.431991   20.443737   16.755879
Au   15.585770   20.985105   14.202138
Au   16.182929   16.828208   19.951531
Au   17.828857   19.754133   13.050722
Au   15.330085   10.581655   13.373496
Au   16.889840   15.043082   10.687771
Au   13.318672   12.301690   12.945934
Au   15.060252   13.937944   14.191569
Au   17.904060   10.907276   12.535415
Au   16.004236   12.686944   11.843533
Au   17.058584   12.018726   14.828453
Au   13.806537   12.425420   18.306842
Au   19.346558   16.553201   16.389797
Au   14.986754   16.998801   10.357469
Au   19.651687   12.505827   13.787401
Au   14.111311   14.659624   11.559016
Au   15.819959   16.381758   12.861980
Au   17.735288   14.344648   13.368247
Au   17.534231   17.757334   11.114130
Au   16.763226   15.749049   15.632877
Au   17.664665   15.225484   18.257769
Au   20.847237   17.842924   14.531474
Au   20.000705   18.390160   12.062650
Au   16.011703   13.372215   16.991042
Au   15.283556   19.050870   12.206475
Au   16.155206   18.440751   14.843177
Au   18.715457   19.176327   15.618989
Au   17.156919   17.884391   17.549219
Au   18.761318   13.077270   11.232129
Au   19.415822   15.740255   11.587494
Au   18.383597   17.107019   13.771209
Au   18.741867   13.861116   16.029711
Au   20.318281   15.161232   14.164771
