56
Generated with con2xyz
Au   13.676289   12.243888   9.906576
Au   13.893560   12.807393   12.595705
Au   14.242818   13.429347   15.309298
Au   15.007357   14.698753   17.741379
Au   15.836735   15.877291   20.083126
Au   16.153589   12.923581   10.804182
Au   16.476383   13.588122   13.513016
Au   16.194406   15.650876   15.397087
Au   16.993497   16.818685   17.804385
Au   14.075101   14.845291   10.559761
Au   14.347247   15.502155   13.271976
Au   13.368207   16.133469   15.868759
Au   14.341408   17.394153   18.285262
Au   11.665970   13.704655   11.262535
Au   11.772360   14.281199   14.242904
Au   12.264104   13.904129   17.192252
Au   11.723657   16.826322   18.071918
Au   12.196275   10.845686   11.649552
Au   12.339058   11.519728   14.614663
Au   14.413804   11.872246   17.709166
Au   15.186306   13.230552   20.016331
Au   15.057665   10.544707   11.623984
Au   15.440648   11.012781   14.385619
Au   19.191072   12.483740   17.177858
Au   17.597262   14.259169   18.717139
Au   18.594954   13.686405   11.785732
Au   18.384532   15.716291   13.616173
Au   18.044736   17.671413   15.471671
Au   16.585965   15.586646   11.496940
Au   16.288561   17.609280   13.369435
Au   15.351298   18.253654   15.899064
Au   14.514427   17.422045   11.308805
Au   13.532572   18.109482   13.774942
Au   12.652941   18.652876   16.297181
Au   12.077337   16.329767   12.006362
Au   11.130961   16.986350   14.476757
Au   10.109384   15.453969   16.461992
Au   9.774231   15.088334   12.727707
Au   9.014941   13.635097   14.869085
Au   10.609605   14.635247   19.221507
Au   10.175407   12.196648   12.943845
Au   9.665729   12.908714   17.424915
Au   12.497015   12.631598   19.566085
Au   13.205646   15.236310   19.768665
Au   10.805925   9.554613   13.543665
Au   9.746197   11.081957   15.451547
Au   11.744778   11.157312   17.356530
Au   13.684026   9.687571   16.127700
Au   16.242695   10.010667   16.837801
Au   16.753198   12.876076   16.287056
Au   13.490926   9.280215   13.454780
Au   18.184183   10.767108   15.207990
Au   17.052850   11.657760   18.756990
Au   17.577590   11.292620   12.598733
Au   19.062836   13.149357   14.444509
Au   18.721205   15.089739   16.353576
