56
Generated with con2xyz
Au   17.402251   17.573013   16.609047
Au   18.977235   17.383193   14.258682
Au   20.574929   19.259455   15.669043
Au   14.577252   16.949769   16.015958
Au   15.281881   17.043450   18.730044
Au   15.537578   19.498879   17.142037
Au   18.374058   20.225170   16.966176
Au   16.088075   14.844981   17.148729
Au   18.889965   15.291151   16.387357
Au   17.863436   15.917768   19.025784
Au   17.478183   18.720217   19.204043
Au   16.678791   15.730189   14.553543
Au   16.134890   18.638299   14.327573
Au   21.318471   16.617625   15.577754
Au   22.117899   17.796553   19.560507
Au   19.917992   17.619720   17.891052
Au   11.941505   16.480632   15.433139
Au   12.599963   16.659189   18.020528
Au   13.342650   16.667922   20.631096
Au   13.857568   21.367258   17.799582
Au   16.433618   21.430054   15.339961
Au   22.617189   18.386887   17.105737
Au   14.954253   12.384693   17.588168
Au   17.674779   12.621271   16.884496
Au   20.297447   13.136029   16.144704
Au   18.356432   14.405174   21.268825
Au   15.442388   18.251127   21.238749
Au   15.569838   20.632133   19.905261
Au   16.048442   13.986099   12.535414
Au   15.519558   16.652242   12.208188
Au   16.455336   20.996174   12.711074
Au   17.993422   17.142957   21.554143
Au   17.572004   19.881482   21.686543
Au   20.184449   14.865528   13.927640
Au   17.556849   18.466949   12.061851
Au   15.840481   15.491545   21.029019
Au   13.456571   19.054345   19.148024
Au   13.929166   15.177375   13.919052
Au   14.804430   19.209358   11.861172
Au   20.858278   20.108152   18.330833
Au   19.880722   18.890877   20.563848
Au   13.382004   17.919941   13.711732
Au   12.883132   19.049942   16.412062
Au   21.339361   15.268064   17.887715
Au   20.282054   16.025680   20.308965
Au   13.373481   14.393695   16.497438
Au   14.098615   14.490733   19.144322
Au   16.517128   22.073778   17.923480
Au   18.558384   21.184536   19.539412
Au   16.686654   13.338469   19.434973
Au   19.396279   13.644590   18.759646
Au   14.133393   20.438803   14.376254
Au   18.523472   20.092135   14.126880
Au   15.451825   13.133718   15.044915
Au   18.087647   13.335811   14.296397
Au   18.145224   15.683305   12.272989
