56
Generated with con2xyz
Au   15.243650   14.381571   9.114586
Au   16.120525   14.924167   11.738419
Au   16.806961   15.465039   14.563178
Au   17.244772   15.912399   17.364755
Au   17.783219   15.144530   9.537077
Au   18.954732   15.784394   12.402532
Au   19.276099   16.220666   15.550870
Au   15.671250   16.982229   9.915620
Au   16.598951   17.544011   12.646624
Au   17.149759   18.051837   15.644168
Au   13.478826   15.542370   10.829969
Au   14.184370   16.032829   13.533826
Au   14.767061   16.528350   16.336308
Au   14.258929   12.865738   11.119349
Au   14.970417   13.343858   13.848966
Au   15.604473   13.867373   16.575791
Au   16.918653   12.596939   10.419152
Au   17.807066   13.191555   13.189200
Au   18.299656   13.649475   16.057422
Au   20.698819   17.995528   11.556845
Au   21.282640   16.598733   13.771188
Au   16.715531   21.996675   11.917131
Au   19.118620   18.292712   13.700431
Au   16.184667   19.589062   10.854492
Au   16.969655   20.118282   13.760724
Au   13.905444   18.155806   11.687607
Au   14.645594   18.648918   14.431572
Au   15.917587   18.295262   18.007276
Au   11.669604   16.700164   12.621187
Au   13.553434   18.968055   16.938464
Au   12.360637   13.966875   12.828318
Au   13.032019   14.463985   15.618797
Au   13.191540   11.287135   13.139867
Au   13.864724   11.798972   15.913848
Au   15.936371   11.076332   12.500948
Au   16.623080   11.590075   15.298486
Au   19.467596   13.423473   10.887053
Au   19.315331   11.406146   14.600372
Au   20.335034   15.902155   9.951340
Au   20.301854   14.038981   14.238480
Au   18.274716   17.720197   10.404115
Au   18.723294   20.072432   11.665063
Au   15.574493   22.342390   14.355873
Au   14.360339   20.756672   12.575225
Au   13.377807   21.012573   15.144149
Au   15.769395   20.419356   16.305323
Au   12.149844   19.259569   13.478054
Au   12.256108   17.189346   15.257844
Au   10.662779   15.086609   14.554941
Au   11.389682   12.418148   14.871386
Au   12.234080   9.878396   15.147262
Au   14.850410   9.626853   14.562803
Au   17.538263   9.473785   13.934447
Au   18.655255   10.914463   11.932496
Au   21.006097   12.054462   12.594425
Au   21.618018   14.680659   11.950389
