56
Generated with con2xyz
Au   16.847076   15.836351   9.939007
Au   16.849655   15.826131   12.711764
Au   16.828752   15.841578   15.625065
Au   16.850604   15.816966   18.394430
Au   19.116052   16.568181   11.270701
Au   19.197022   16.583596   14.162390
Au   19.127335   16.551578   17.042774
Au   16.839819   18.224543   11.281996
Au   16.875515   18.287726   14.154289
Au   16.882109   18.237405   17.107366
Au   14.576853   16.571719   11.268721
Au   14.494229   16.550346   14.137986
Au   14.545336   16.580436   17.118553
Au   15.446985   13.897740   11.268643
Au   15.395676   13.822472   14.160667
Au   15.441990   13.896878   17.047656
Au   18.251042   13.898271   11.268934
Au   18.292428   13.835528   14.166213
Au   18.247059   13.897034   17.043843
Au   21.418529   17.307109   12.660293
Au   21.428575   17.307569   15.648345
Au   19.151585   18.994268   12.658108
Au   19.176764   18.987748   15.639898
Au   16.831129   20.636313   12.698946
Au   16.886423   20.650289   15.696487
Au   14.542322   19.000631   12.675944
Au   14.531277   18.953022   15.583329
Au   14.625595   19.064784   18.256363
Au   12.276876   17.305378   12.655833
Au   12.253519   17.293151   15.632959
Au   13.122744   14.603342   12.645757
Au   13.126459   14.613920   15.654910
Au   14.027188   11.933231   12.657309
Au   14.024134   11.934704   15.658922
Au   16.850045   11.917064   12.664836
Au   16.847707   11.912331   15.656061
Au   19.669572   11.942974   12.665322
Au   19.672361   11.939526   15.651283
Au   20.565307   14.616314   12.666131
Au   20.574821   14.611960   15.651399
Au   23.488386   17.974927   14.148476
Au   21.358738   19.608228   14.142655
Au   19.071113   21.272294   14.139461
Au   16.866742   22.813343   14.181250
Au   14.607548   21.340640   14.206616
Au   14.580961   21.288260   16.902685
Au   12.301592   19.605814   14.123310
Au   10.194071   17.959127   14.134160
Au   10.985782   15.389851   14.142928
Au   11.867581   12.712342   14.158104
Au   12.754433   10.179618   14.157360
Au   15.436539   10.124298   14.158272
Au   18.262261   10.124407   14.158269
Au   20.946527   10.184478   14.155299
Au   21.837154   12.716403   14.154781
Au   22.711950   15.404556   14.152708
