56
Generated with con2xyz
Au   18.418883   15.139327   10.900338
Au   16.764189   16.333573   12.777368
Au   17.106094   15.911336   15.537566
Au   17.143303   15.554092   18.298807
Au   16.558648   15.136965   20.857942
Au   16.394563   16.771822   10.128656
Au   18.924151   17.763595   14.289014
Au   19.637269   15.566523   16.491322
Au   18.981626   16.193786   20.349178
Au   15.693007   18.772246   11.877497
Au   16.040040   18.350583   14.674673
Au   17.708137   18.112529   17.082747
Au   17.010649   17.958395   19.816236
Au   14.150058   16.393923   11.642538
Au   14.458367   15.972934   14.396789
Au   14.963026   17.076850   16.981436
Au   14.637852   16.647285   19.656660
Au   15.805584   14.209247   11.193273
Au   16.266104   13.782402   13.986497
Au   15.110753   14.258929   16.608211
Au   14.675094   13.909975   19.310312
Au   17.909993   12.654964   12.084987
Au   18.991790   14.856649   13.796488
Au   17.862857   13.273247   16.480331
Au   17.156973   12.956322   19.185787
Au   18.372848   18.104294   11.544609
Au   21.424999   16.586397   14.606031
Au   21.100543   16.378148   18.667712
Au   17.635208   20.083791   13.378231
Au   20.542490   18.172559   16.626844
Au   19.571636   18.563576   19.121060
Au   18.921233   20.162783   15.781058
Au   16.317772   20.681401   16.103673
Au   17.803132   20.442844   18.371991
Au   13.417958   18.388479   13.468227
Au   13.799978   19.479808   15.990768
Au   15.273642   19.430208   18.346765
Au   11.981851   16.022501   13.274110
Au   12.328980   17.125103   15.762888
Au   12.831622   18.168613   18.241299
Au   13.614278   13.839386   12.832127
Au   12.476203   14.299997   15.372558
Au   12.848815   15.414625   17.886358
Au   15.361566   11.744665   12.490346
Au   14.199175   12.126280   14.972566
Au   13.105857   12.651688   17.460866
Au   16.827886   11.281556   14.786413
Au   19.370699   12.205732   14.309746
Au   15.675454   11.705232   17.278048
Au   20.428017   16.429339   12.127679
Au   19.566959   14.073238   18.800837
Au   20.615190   12.919309   16.611830
Au   20.440873   13.620481   11.900165
Au   21.566893   13.913920   14.309322
Au   22.283812   15.039585   16.673099
Au   14.960112   20.653139   13.734531
