56
Generated with con2xyz
Au   14.111984   22.907419   13.901803
Au   12.977074   18.451218   19.589060
Au   15.575792   17.971115   18.991550
Au   13.648932   18.342877   16.912910
Au   14.577137   15.908713   15.831082
Au   16.580289   16.325225   13.887568
Au   15.516152   15.648572   20.551608
Au   16.627346   14.083613   15.506801
Au   16.344363   15.411686   17.914276
Au   18.249683   15.108291   19.948656
Au   14.706564   20.612916   12.769393
Au   14.526568   18.273423   14.248138
Au   15.662936   20.359471   17.484355
Au   16.418634   17.857761   16.298616
Au   16.715780   18.800584   12.438182
Au   13.797410   20.748043   15.431921
Au   14.774605   20.450413   20.257160
Au   17.466928   17.598439   21.047041
Au   17.546293   19.992117   19.555488
Au   18.110049   18.154520   23.613802
Au   14.771931   18.057548   21.675686
Au   16.691738   20.026190   22.224270
Au   15.772780   22.732592   15.975677
Au   13.060477   20.750339   18.130831
Au   16.757598   22.334675   20.665744
Au   14.955835   22.687855   18.660006
Au   18.462716   13.701521   17.534025
Au   14.887723   17.028867   11.984567
Au   18.688197   14.523035   13.826386
Au   18.500682   15.989831   16.054639
Au   20.512440   14.156698   15.778896
Au   20.664194   16.409006   14.185659
Au   13.720173   16.068894   18.453902
Au   16.276892   16.275272   23.086500
Au   20.417421   15.512541   18.199160
Au   18.687825   20.701148   13.064567
Au   16.646187   22.528545   13.303759
Au   20.729351   18.842224   12.909871
Au   18.580721   18.306306   14.425081
Au   18.427248   19.910446   16.867363
Au   20.430573   17.969240   16.577723
Au   20.573764   20.425004   15.082823
Au   18.368429   17.463134   18.425510
Au   19.352882   19.577651   21.658395
Au   20.202766   17.105264   20.514809
Au   20.337031   19.504418   19.065087
Au   18.856291   15.821712   22.524791
Au   16.519010   20.270121   14.794768
Au   17.641784   22.419636   18.042163
Au   18.471885   22.258611   15.366557
Au   19.398155   21.891292   20.102588
Au   22.372730   16.069433   16.316238
Au   22.493667   18.391944   14.864079
Au   20.307143   21.793843   17.500732
Au   22.289534   19.880065   17.160275
Au   22.208855   17.545951   18.610849
