56
Generated with con2xyz
Au   16.007965   15.833217   9.665720
Au   16.756177   16.191738   12.458468
Au   16.828950   16.948784   15.267323
Au   16.260939   16.249044   18.291058
Au   15.771767   15.838792   21.011955
Au   17.809344   17.647213   10.209196
Au   19.413277   17.968475   14.638778
Au   18.820242   16.875637   17.232249
Au   18.347859   16.183858   20.107275
Au   15.265344   18.087473   11.209978
Au   15.175249   18.754322   13.909108
Au   16.866802   18.913412   17.533852
Au   16.324098   18.297594   20.141554
Au   13.972445   15.696671   11.358296
Au   14.307967   16.047037   14.085965
Au   14.430453   17.615254   16.529096
Au   13.854668   17.092827   19.429839
Au   16.032471   13.700431   11.394997
Au   16.313933   14.069991   14.288777
Au   14.791571   14.727114   16.520950
Au   14.291694   14.360664   19.285434
Au   18.396989   14.947627   10.607646
Au   18.839401   15.225884   14.286252
Au   17.722625   14.274855   16.833051
Au   16.995103   13.824602   19.600038
Au   19.598474   16.928926   12.114000
Au   21.411543   16.063190   14.086835
Au   20.864467   16.534146   18.958169
Au   17.615658   18.812116   12.613534
Au   21.455210   17.584500   16.444057
Au   21.487071   19.079392   18.627761
Au   17.463131   19.865245   15.079206
Au   19.551203   19.577204   16.873094
Au   18.980656   18.687970   19.388556
Au   12.850498   17.912056   12.738290
Au   12.762287   19.379110   15.117523
Au   14.377948   19.553632   18.572539
Au   11.810461   15.415527   12.918374
Au   11.885168   16.876909   15.233653
Au   12.114505   18.363093   17.602546
Au   13.837979   13.448082   12.975409
Au   12.376589   14.138492   15.213822
Au   12.420498   15.623544   17.615021
Au   16.092025   11.646420   13.233505
Au   14.421136   12.194369   15.300107
Au   12.916175   12.869389   17.510079
Au   18.399046   12.999977   12.622911
Au   18.118474   12.134187   15.226948
Au   15.580842   12.389063   17.735160
Au   20.606460   13.145971   14.345349
Au   20.354701   12.308232   16.841424
Au   18.138743   11.823804   18.092451
Au   20.646796   14.462441   12.043086
Au   20.682192   14.956589   16.476068
Au   19.619732   14.070149   18.840476
Au   15.010832   20.392959   16.120815
