56
Generated with con2xyz
Au   13.887671   12.617669   10.283180
Au   14.324059   12.975859   12.901288
Au   14.826059   13.320409   15.646859
Au   14.918976   14.520242   18.141828
Au   14.978813   15.568120   20.563008
Au   16.543782   13.721628   11.299261
Au   17.012111   14.015568   14.092957
Au   16.262796   15.987045   16.047488
Au   16.359208   17.103483   18.600825
Au   14.324358   15.258439   11.026653
Au   14.721297   15.730102   13.703738
Au   13.469751   16.140139   16.198403
Au   13.611387   17.116203   18.766064
Au   11.882624   14.102228   11.546097
Au   12.283702   14.445914   14.260969
Au   12.331055   13.676087   16.979555
Au   11.097935   16.274115   17.651045
Au   13.533879   9.956205   10.553411
Au   12.649962   11.638241   14.904663
Au   14.203689   11.711801   17.874542
Au   14.142322   12.962862   20.350503
Au   15.841843   11.098636   11.440973
Au   16.186692   11.281361   14.221171
Au   17.441119   13.592569   16.947094
Au   17.396695   14.830697   19.455679
Au   19.074048   14.624606   12.535839
Au   18.473518   16.594824   14.445235
Au   17.691628   18.322386   16.468890
Au   16.937335   16.273222   12.161275
Au   16.221245   18.132044   14.160375
Au   14.985873   18.489938   16.668816
Au   14.718989   17.833814   11.902075
Au   13.484043   18.285304   14.340935
Au   12.289525   18.576024   16.828558
Au   12.329202   16.655525   12.435001
Au   11.098042   17.011176   14.935874
Au   9.889721   14.661092   15.739168
Au   9.975130   15.423593   13.046270
Au   10.138256   12.822182   13.683280
Au   9.986580   13.890396   18.372935
Au   11.985298   11.466551   12.142901
Au   10.218427   11.994280   16.361775
Au   11.792200   12.065716   19.118710
Au   12.382389   14.784694   19.559502
Au   11.767191   8.798735   12.300555
Au   10.406320   10.207776   14.196733
Au   12.029627   10.166359   17.126516
Au   12.349522   8.600077   14.920001
Au   14.515837   9.793859   15.933707
Au   16.722724   10.983724   16.911470
Au   14.071408   9.866531   13.183960
Au   18.656696   11.836303   15.179185
Au   16.491404   12.348477   19.242502
Au   18.242620   12.048146   12.533138
Au   19.558617   14.320821   15.244833
Au   18.707252   15.998073   17.294149
