56
Generated with con2xyz
Au   14.097359   20.969612   14.028908
Au   13.592982   18.111364   20.731454
Au   16.011081   17.488470   19.631561
Au   13.743967   18.257392   17.947298
Au   14.269012   15.914011   16.392632
Au   15.905952   16.549762   14.212588
Au   16.202048   15.006227   20.786834
Au   16.154446   14.107431   15.443639
Au   16.367534   15.044948   18.020948
Au   18.631462   14.449393   19.555785
Au   15.863793   19.104119   13.048999
Au   14.102680   18.456563   15.185608
Au   15.909311   20.087834   18.431772
Au   16.261663   17.688046   16.828736
Au   16.626852   21.742604   13.388173
Au   13.717543   20.796175   16.743360
Au   14.795519   22.386462   20.922959
Au   18.320394   16.711822   21.271982
Au   18.152587   19.301952   20.022459
Au   19.437290   21.108667   21.563371
Au   13.851720   15.698521   21.783490
Au   15.670841   19.893245   21.257859
Au   15.018089   22.674496   18.310212
Au   13.472463   20.580985   19.517883
Au   17.260012   21.973145   20.002243
Au   15.332315   22.795821   15.606635
Au   18.328889   13.390764   17.014585
Au   17.758019   17.247535   12.249409
Au   17.883566   14.794317   13.403816
Au   18.183522   15.849921   15.887462
Au   20.037083   14.090775   14.958796
Au   19.996406   16.540690   13.705435
Au   13.932371   15.771497   19.141742
Au   15.841519   17.348482   22.362913
Au   20.470121   15.036521   17.514730
Au   18.834727   21.153980   14.928926
Au   18.439934   19.921522   12.496547
Au   20.649758   19.259271   14.058598
Au   18.076928   18.383186   14.678262
Au   18.454769   19.590689   17.224200
Au   20.310572   17.643216   16.299172
Au   21.038831   20.424759   16.539635
Au   18.527719   16.916208   18.464695
Au   22.811349   18.067082   20.367846
Au   20.773494   16.227402   20.023189
Au   20.645207   18.767006   18.837536
Au   17.928496   19.080954   22.694686
Au   16.216142   20.248561   15.623775
Au   21.846283   20.604549   20.416079
Au   17.510001   22.199395   17.231441
Au   20.411935   18.544254   21.630132
Au   22.080740   15.830223   15.376407
Au   22.791638   18.495483   15.671434
Au   19.731043   21.456963   18.855197
Au   23.126288   19.593838   18.139820
Au   22.542552   16.892095   17.895631
