56
Generated with con2xyz
Au   16.076088   16.003131   9.645089
Au   16.706242   16.338539   12.517934
Au   16.542279   16.692444   15.412601
Au   16.029705   16.277627   18.312578
Au   15.465766   15.928988   21.010389
Au   17.742472   17.920482   10.366639
Au   18.611235   18.553280   15.066436
Au   18.594589   16.890582   17.396065
Au   18.067854   16.544741   20.249203
Au   15.061698   18.035302   11.190324
Au   14.904967   18.419630   13.937320
Au   16.400499   18.882806   17.205594
Au   16.007613   18.406359   20.110606
Au   14.022869   15.446967   11.234254
Au   14.309302   15.694028   13.980584
Au   14.007586   17.380736   16.541569
Au   13.634472   17.075799   19.274361
Au   16.267475   13.817230   11.366926
Au   16.658868   14.073040   14.248809
Au   14.827901   14.551731   16.473982
Au   14.229766   14.304787   19.244530
Au   18.498353   15.335284   10.601368
Au   19.060832   15.567576   14.836719
Au   17.586116   14.298740   16.945897
Au   16.985283   14.026129   19.741729
Au   19.314310   17.289962   12.585712
Au   21.079268   17.350709   14.704482
Au   20.590453   17.184554   19.322869
Au   17.238551   19.100941   12.674793
Au   21.156701   15.936810   16.999610
Au   20.510831   18.753058   17.048409
Au   16.581370   20.458947   14.900555
Au   18.390817   20.660640   16.981060
Au   18.643785   19.039114   19.152023
Au   12.725093   17.449775   12.584209
Au   15.707661   21.700468   17.079294
Au   16.703507   20.860589   19.299741
Au   11.899835   14.883051   12.778670
Au   11.903288   16.432225   15.009776
Au   14.220086   19.714502   18.550865
Au   14.167819   13.145772   12.929101
Au   12.527855   13.727622   15.111083
Au   12.391587   15.303619   17.458843
Au   16.762940   11.700897   13.140120
Au   14.879897   12.047979   15.289695
Au   13.135933   12.593997   17.451419
Au   18.700205   12.774549   11.512404
Au   17.543576   11.766512   15.834843
Au   15.792143   12.309035   17.925978
Au   21.630026   14.602300   14.721349
Au   19.275817   12.871862   14.085259
Au   18.485536   12.160464   18.399781
Au   20.347246   14.768970   12.429684
Au   20.151659   13.340722   16.602242
Au   19.578725   14.654885   18.941357
Au   14.024942   20.037402   15.904609
