56
Generated with con2xyz
Au   13.586599   14.533687   10.562354
Au   14.345217   14.255360   13.109722
Au   15.057400   13.844969   15.756245
Au   15.701031   14.178727   18.413259
Au   15.871670   11.958392   20.126004
Au   15.849303   15.951976   11.404403
Au   16.637396   15.587002   14.103811
Au   16.140449   16.428790   16.765587
Au   16.633506   16.874352   19.483532
Au   13.252057   16.670010   12.197729
Au   14.074872   16.534820   14.822095
Au   13.462614   15.735885   17.432756
Au   14.083909   16.105636   20.088090
Au   11.743672   13.729605   12.577567
Au   12.165637   14.471161   15.204605
Au   13.042200   12.897611   17.429454
Au   13.642656   13.415301   20.210771
Au   13.672911   11.985952   11.579877
Au   13.271595   11.955566   14.484796
Au   13.536078   10.847389   19.126937
Au   18.314090   14.882067   19.096618
Au   16.039007   13.255786   11.002552
Au   16.652005   12.717642   13.719489
Au   17.862558   14.164910   16.339424
Au   18.832852   16.653278   17.117704
Au   19.286092   12.976024   14.090052
Au   17.735312   18.025988   15.019627
Au   17.194915   18.792568   17.601625
Au   15.639025   18.092200   13.089235
Au   15.198750   18.953398   15.697230
Au   14.573488   18.240656   18.298929
Au   13.154519   18.924012   13.781315
Au   12.550285   18.312060   16.376519
Au   12.021863   17.574884   18.952312
Au   11.411388   16.930945   14.253000
Au   10.798091   16.261693   16.873918
Au   11.556539   14.939967   19.254671
Au   10.545943   12.281324   14.780354
Au   10.357363   13.576773   17.202959
Au   11.253575   12.262604   19.479298
Au   11.333852   11.059233   12.499786
Au   11.099095   10.939648   17.150099
Au   13.541386   10.012506   16.496654
Au   15.590548   11.555828   17.377707
Au   13.635192   9.658969   13.086161
Au   11.509339   9.705706   14.772278
Au   15.659740   10.367812   14.788008
Au   16.001981   10.620679   12.029646
Au   18.182185   10.312711   13.613736
Au   16.208415   14.559183   20.961722
Au   18.378788   11.967991   11.601724
Au   17.965788   11.460932   15.972414
Au   17.954859   12.348866   18.514506
Au   18.267351   14.584338   12.108723
Au   18.139746   17.231571   12.462767
Au   19.294272   15.729385   14.515624
