56
Generated with con2xyz
Au   14.184230   14.648382   10.145368
Au   14.358589   14.406241   12.870636
Au   14.535056   14.134463   15.692221
Au   15.129380   13.982568   18.353859
Au   16.968073   12.080278   19.121448
Au   16.316771   15.916818   11.327690
Au   16.546685   15.663681   14.127161
Au   15.824637   16.452351   16.718831
Au   16.660768   16.500317   19.335814
Au   13.795855   16.898311   11.695266
Au   13.807195   16.610037   14.651407
Au   13.083131   15.966737   17.365882
Au   14.096568   15.855777   20.015858
Au   11.938432   14.447770   11.642245
Au   11.971088   14.385727   14.439416
Au   12.681701   12.630892   17.193897
Au   13.877823   13.185550   20.742245
Au   13.632631   12.224837   11.355351
Au   13.697395   11.861018   14.415711
Au   14.446080   11.244879   18.938519
Au   18.357686   14.334886   18.997207
Au   16.266075   13.150710   11.132652
Au   16.438949   12.832577   13.963269
Au   17.337292   14.075393   16.414574
Au   18.626753   16.461177   17.316977
Au   19.203417   12.829098   14.590370
Au   17.783619   17.967356   15.156166
Au   17.066076   18.691812   17.706478
Au   15.799679   18.114472   13.085827
Au   15.293767   18.985900   15.617069
Au   14.530418   18.104094   18.444178
Au   13.183968   18.920565   13.647095
Au   11.103180   16.909557   15.521175
Au   12.821437   18.657833   16.414097
Au   11.500158   16.783466   12.946015
Au   10.664679   14.677755   16.869183
Au   11.924262   14.293280   19.276820
Au   10.494817   12.278111   15.542792
Au   9.921417   12.586685   18.282727
Au   11.909565   11.574857   19.706267
Au   11.421209   12.046959   12.943606
Au   11.016993   10.341415   17.421898
Au   13.568208   9.997633   16.705248
Au   15.801122   11.651748   16.512253
Au   13.206548   9.861885   12.617603
Au   11.666004   9.975888   14.782689
Au   15.129128   9.527826   14.605127
Au   15.771562   10.709958   12.312226
Au   17.646135   10.521612   14.689592
Au   16.322003   14.233859   20.788031
Au   18.305566   11.656633   12.289361
Au   18.582861   11.728686   17.001900
Au   20.030013   14.064376   16.894788
Au   18.382868   14.382666   12.425904
Au   18.359448   17.124231   12.646920
Au   19.260393   15.605580   14.773638
