56
Generated with con2xyz
Au   18.220826   14.697942   10.434167
Au   13.497316   14.076493   10.587693
Au   16.072526   12.692357   16.162527
Au   15.990213   14.672525   18.256889
Au   14.898304   17.100008   19.078141
Au   14.474706   14.792074   13.011120
Au   17.120327   14.041904   13.783860
Au   18.062632   14.676942   16.370385
Au   17.472855   16.302531   19.809007
Au   16.711590   16.241046   12.037301
Au   17.707010   16.801488   14.545749
Au   15.469808   15.509213   15.577175
Au   16.474513   13.916069   20.801072
Au   11.809180   15.508888   12.305017
Au   12.811855   16.164878   14.834492
Au   13.349542   15.423276   17.483439
Au   13.901058   14.707938   20.172589
Au   12.363407   12.805884   12.818692
Au   13.374642   13.456883   15.374301
Au   13.964659   12.732519   18.030534
Au   14.507815   12.055111   20.604387
Au   14.074601   11.405709   11.184373
Au   15.067748   12.078920   13.625640
Au   20.600277   13.973071   17.138531
Au   18.615195   13.913469   19.042075
Au   17.759800   11.274191   14.396152
Au   20.209857   15.931583   15.312196
Au   19.494811   16.316484   17.983093
Au   18.687840   12.604581   12.103618
Au   12.411664   18.142937   13.035144
Au   16.977742   17.180531   17.254373
Au   19.315302   15.311476   12.808686
Au   11.775916   18.505192   15.725385
Au   14.363132   17.923006   16.489587
Au   15.684868   15.417242   9.694535
Au   14.009453   16.817849   11.261022
Au   12.301957   17.770752   18.296017
Au   10.265695   16.899524   14.119900
Au   10.708157   16.156091   16.730877
Au   11.361564   15.368466   19.306707
Au   10.780167   14.235657   14.628775
Au   11.241861   13.456423   17.277654
Au   11.957710   12.779207   19.860387
Au   14.566578   10.152137   18.611963
Au   11.456010   11.555965   15.211071
Au   11.988905   10.883162   17.861215
Au   13.980038   10.670105   15.977177
Au   13.090201   10.218870   13.420586
Au   15.677150   9.483607   14.176367
Au   16.602243   10.097025   16.711886
Au   16.676402   10.667553   11.945113
Au   18.682443   11.996677   16.938368
Au   16.644705   11.924153   18.855115
Au   16.104063   13.239927   11.209825
Au   19.727275   13.262640   14.620191
Au   15.012372   17.565691   13.759856
