56
Generated with con2xyz
Au   15.096676   16.079048   8.853909
Au   15.391496   13.222433   8.786272
Au   17.092792   15.511719   13.444983
Au   16.881032   16.869467   15.882742
Au   14.906944   18.851764   9.126802
Au   18.477595   16.262455   10.972156
Au   19.129681   18.246264   16.952738
Au   16.190030   14.394947   11.058314
Au   17.492377   19.629108   15.353766
Au   15.155776   18.921754   16.527684
Au   13.097256   17.287551   10.360455
Au   13.967759   15.686149   12.499544
Au   15.161787   17.907850   13.907420
Au   13.301776   14.463971   10.132722
Au   17.087928   17.401090   18.484904
Au   16.651765   14.688744   18.551735
Au   17.556447   15.021333   8.643407
Au   17.866605   12.865809   13.064828
Au   18.898337   15.578395   17.348212
Au   19.251646   18.950496   10.648499
Au   20.580130   17.422433   12.464644
Au   12.364698   17.911451   13.046536
Au   21.094411   20.020546   12.222799
Au   11.317195   15.744079   11.628921
Au   18.617201   20.763573   12.763969
Au   13.550439   19.974309   14.462250
Au   15.860688   17.277351   11.234025
Au   14.651637   16.501474   17.756414
Au   12.328011   13.407441   12.547648
Au   14.995241   11.559661   15.670598
Au   15.108436   13.334483   13.528888
Au   14.346221   13.694686   17.461119
Au   13.408225   11.107331   13.512874
Au   16.356200   11.962937   17.936195
Au   14.328526   12.119287   11.148570
Au   16.734862   13.969447   15.898681
Au   18.878770   13.538658   10.530917
Au   18.747847   12.919122   17.659921
Au   17.357316   17.792473   8.974392
Au   19.444627   16.526280   14.803927
Au   17.889276   18.175704   13.022050
Au   16.748100   19.891848   10.852444
Au   20.067020   19.213436   14.530570
Au   14.126444   19.490008   11.713042
Au   12.265685   15.324019   16.961216
Au   12.875837   17.687565   15.768633
Au   15.960427   20.567634   13.384870
Au   11.745171   15.542413   14.305218
Au   12.774535   13.165911   15.254822
Au   14.444936   15.465319   15.235032
Au   16.076728   10.808878   13.217755
Au   17.718358   11.493778   15.489988
Au   17.859603   12.401871   8.346821
Au   16.920201   11.667466   10.714127
Au   19.388687   13.760271   15.208133
Au   19.877741   14.761885   12.751871
