56
Generated with con2xyz
Au   12.182488   18.025244   17.551980
Au   11.227962   15.875576   16.146861
Au   10.821435   18.485007   15.190574
Au   13.807416   14.886610   15.749438
Au   13.283645   17.552958   14.763655
Au   14.679344   21.324069   14.031769
Au   11.862377   13.304306   16.946515
Au   16.383356   12.049950   16.392293
Au   15.856636   11.162131   13.803834
Au   17.020088   13.254936   18.867965
Au   11.767348   13.767661   14.293502
Au   15.169899   13.996613   11.112846
Au   15.057747   16.696466   11.067573
Au   13.729489   12.532277   12.797516
Au   14.742231   17.064670   17.207563
Au   16.470577   14.827205   16.692809
Au   15.860772   13.829778   14.075740
Au   14.432599   13.210830   17.948367
Au   13.790284   17.487786   19.789588
Au   15.482357   15.385458   19.311240
Au   17.455600   17.545725   16.626593
Au   18.570511   15.671141   18.274845
Au   13.657298   15.334332   12.976119
Au   12.692197   17.684671   11.892957
Au   15.939921   16.635676   14.361160
Au   15.006762   18.853369   12.837464
Au   11.086698   16.329807   13.523450
Au   12.439862   19.847601   13.405713
Au   15.474452   19.244865   15.591557
Au   17.986255   18.688870   14.143776
Au   12.794057   15.403079   18.399871
Au   16.454191   17.923404   19.255302
Au   12.866629   20.194466   16.007639
Au   17.083604   20.705022   12.588314
Au   14.982148   21.762529   16.710728
Au   19.311229   19.894551   16.319284
Au   13.813777   12.115275   15.437429
Au   17.228667   15.415499   12.224177
Au   17.279945   12.645334   11.964839
Au   18.269635   12.387965   14.421891
Au   20.782506   13.258311   14.953144
Au   19.590289   14.107787   12.713732
Au   18.865975   13.226685   16.953535
Au   19.024292   18.428812   18.662205
Au   20.953817   14.879143   17.032851
Au   17.291432   18.124241   11.493474
Au   19.533375   19.498729   11.869187
Au   19.519218   16.861316   12.640658
Au   18.651043   15.320770   15.006679
Au   17.026761   20.173509   17.773597
Au   20.196414   17.327012   16.459491
Au   19.512252   21.134710   13.908316
Au   14.379235   19.633944   18.278129
Au   17.203910   21.389958   15.235695
Au   21.271254   15.842952   14.425074
Au   20.771704   18.718923   14.189413
