56
Generated with con2xyz
Au   13.768993   20.716240   14.047790
Au   13.358435   20.207744   19.554395
Au   16.010508   17.274744   19.472389
Au   13.670954   17.943589   17.928649
Au   14.231175   15.687310   16.344422
Au   15.821626   16.419415   14.133378
Au   16.245193   14.805666   20.610767
Au   16.104978   13.932790   15.267155
Au   16.405496   14.866297   17.870364
Au   18.686077   14.341623   19.408797
Au   15.568241   18.942167   13.082706
Au   13.924009   18.204344   15.160829
Au   15.783056   19.876099   18.350906
Au   16.212312   17.528551   16.664628
Au   17.359098   23.379834   14.827028
Au   13.512050   20.495004   16.778391
Au   16.855326   21.414990   22.549114
Au   18.310802   16.560813   21.118252
Au   18.058335   19.193823   19.923000
Au   19.305559   21.033625   21.501504
Au   13.580199   17.641886   20.655981
Au   15.502982   19.520609   21.201962
Au   14.741939   22.385177   18.378477
Au   14.665730   22.070557   21.045136
Au   17.093246   21.860579   19.911773
Au   14.944112   22.617967   15.628722
Au   18.145877   15.734313   15.702366
Au   17.845536   14.755111   13.211127
Au   18.060989   12.400697   14.365346
Au   20.109610   14.043958   14.737877
Au   22.062898   15.899246   15.190469
Au   19.923908   16.523243   13.586514
Au   14.014602   15.462727   19.091381
Au   15.814549   16.980203   22.179796
Au   20.481360   15.012565   17.327980
Au   18.586767   21.014415   14.759391
Au   16.222208   21.592249   13.288991
Au   20.501791   19.207959   13.958763
Au   17.926205   18.289148   14.388993
Au   18.302477   19.464770   17.061304
Au   20.186020   17.606758   16.130297
Au   20.841559   20.419787   16.394318
Au   18.502912   16.802997   18.303227
Au   22.743719   18.086292   20.193753
Au   20.774146   16.178083   19.851610
Au   20.535722   18.723382   18.681039
Au   17.823616   18.877641   22.620322
Au   16.018740   20.094222   15.538856
Au   21.704536   20.585192   20.269811
Au   17.273757   22.079101   17.147312
Au   20.337617   18.468331   21.470014
Au   18.409611   13.244675   16.856878
Au   22.664214   18.564690   15.514470
Au   19.554554   21.356118   18.731284
Au   22.978595   19.658330   17.983037
Au   22.485965   16.930198   17.716310
