56
Generated with con2xyz
Au   18.418427   15.009299   11.105389
Au   16.748686   16.301246   12.943464
Au   17.096794   15.797591   15.768302
Au   16.677369   15.583870   18.625212
Au   18.806453   13.782061   18.619472
Au   16.456161   16.656805   10.202060
Au   18.914120   17.581984   14.376942
Au   19.785459   15.797390   16.671013
Au   19.245582   16.363494   19.378931
Au   15.753514   18.678128   11.886047
Au   16.197757   18.421361   14.864844
Au   17.837102   17.959695   17.255093
Au   17.134887   18.122854   19.844247
Au   14.153653   16.418534   11.670710
Au   14.426734   16.035268   14.470918
Au   14.890577   17.097261   17.006678
Au   14.562219   16.988925   19.706097
Au   15.761198   14.201221   11.246719
Au   16.039860   13.757025   14.041645
Au   15.033563   14.202557   16.693939
Au   14.316016   14.271509   19.459384
Au   17.757393   12.518532   12.226766
Au   18.837172   14.626173   14.004653
Au   17.690125   13.024443   16.240736
Au   16.354787   12.771074   18.775744
Au   18.529786   17.799694   11.567553
Au   21.573285   16.826576   14.798755
Au   21.671484   17.100134   18.299815
Au   17.775163   19.885681   13.131256
Au   20.478649   18.620159   16.477156
Au   19.739006   18.955102   19.068151
Au   18.445504   20.162600   15.689211
Au   15.987986   20.946488   16.287816
Au   17.678882   20.467325   18.352579
Au   13.506453   18.444532   13.476827
Au   13.763320   19.502396   15.978030
Au   15.190395   19.416635   18.436580
Au   11.943920   16.161096   13.267471
Au   12.232250   17.233140   15.726744
Au   12.707114   18.277614   18.213424
Au   13.457688   13.959337   12.784219
Au   12.387222   14.404371   15.387046
Au   12.691829   15.552934   17.845147
Au   15.098544   11.783727   12.397262
Au   13.852565   12.178544   14.821797
Au   13.056922   12.716873   17.502446
Au   16.784578   11.155114   14.424835
Au   19.469432   12.016618   14.313108
Au   15.420141   11.381922   16.764734
Au   20.519532   16.097265   12.442252
Au   21.316942   14.534266   18.892476
Au   20.518171   13.151521   16.582124
Au   20.337549   13.335309   12.039484
Au   21.532309   14.148192   14.276066
Au   22.516909   15.099585   16.616147
Au   15.160330   20.619999   13.739053
