56
Generated with con2xyz
Au   14.375564   18.840126   14.738679
Au   13.210139   19.976983   19.326555
Au   14.818565   14.930661   20.397903
Au   13.440268   18.107535   17.253314
Au   14.301544   15.554872   17.773912
Au   16.315806   16.871640   13.790545
Au   17.446974   14.715938   20.909804
Au   18.115326   13.097762   16.339900
Au   16.026880   14.688484   15.661262
Au   20.086020   14.462200   21.324362
Au   13.893533   16.252468   15.167751
Au   16.061039   17.378461   16.443028
Au   15.757527   19.293664   18.477850
Au   16.538513   16.669256   19.118381
Au   14.706251   21.475241   14.378884
Au   14.060176   20.770842   16.873970
Au   17.072650   21.411805   21.260942
Au   18.751865   16.791145   22.269497
Au   17.933761   18.917769   20.364610
Au   19.677024   21.274733   20.666342
Au   13.975673   17.442312   19.890924
Au   15.188679   19.563485   21.199499
Au   16.139969   22.491456   16.626611
Au   15.193650   21.820022   19.258508
Au   17.784731   21.289070   18.570012
Au   17.137072   22.248632   13.987647
Au   20.559614   14.232844   16.572459
Au   18.441522   17.913276   12.447053
Au   18.450247   15.078946   14.426912
Au   18.262045   15.725353   17.073998
Au   19.117992   13.699104   18.878947
Au   21.016603   16.063246   14.664724
Au   16.436779   13.942152   18.367464
Au   16.071857   17.044396   21.794195
Au   21.578164   14.979613   19.042124
Au   18.941181   20.269698   13.767714
Au   16.400662   19.606584   13.074508
Au   20.913225   18.451846   13.513111
Au   18.683702   17.748392   15.082469
Au   18.441053   18.713753   17.658854
Au   20.733946   17.129025   17.221225
Au   20.548864   19.694685   15.974371
Au   19.285319   16.477219   19.583309
Au   22.834865   18.997818   21.119028
Au   21.447898   16.764460   21.259722
Au   20.678928   18.985061   19.422968
Au   17.435080   19.185216   22.911995
Au   16.774367   20.017356   15.753993
Au   22.314927   21.257335   19.983521
Au   18.788557   21.903211   16.046013
Au   20.175097   19.076449   22.147863
Au   22.913524   15.620872   16.716485
Au   22.715187   18.048361   15.571255
Au   20.523161   21.477003   18.060596
Au   22.688288   19.745058   17.733364
Au   22.940216   17.336952   18.919870
