56
Generated with con2xyz
Au   12.382793   17.890216   18.735983
Au   10.659391   19.241053   15.605491
Au   10.709779   16.768512   14.373601
Au   12.620692   20.173386   17.240241
Au   10.448980   16.965447   17.078777
Au   12.288366   12.463924   14.840391
Au   11.029958   14.287123   13.152137
Au   12.028829   12.663249   17.545628
Au   12.601203   15.349013   17.632540
Au   14.480133   13.474972   16.506594
Au   13.747061   10.822945   16.517181
Au   11.194231   16.655921   11.695407
Au   11.034468   19.085070   12.904065
Au   15.448992   20.759015   13.350998
Au   13.066280   15.209178   14.788938
Au   13.302745   17.571356   13.264138
Au   10.649128   14.445717   15.909900
Au   15.499756   18.541347   14.934363
Au   14.584650   16.253092   19.237993
Au   12.916952   17.731099   16.044084
Au   13.022931   20.145628   14.498588
Au   14.839968   18.687169   17.873088
Au   17.068394   17.075539   18.425455
Au   13.377429   19.857700   11.764432
Au   17.806836   19.178709   13.412880
Au   19.523669   17.885307   17.627548
Au   19.591165   19.427905   15.446265
Au   14.118766   10.667845   13.816195
Au   15.744770   15.768564   10.824414
Au   12.773142   12.353797   12.160262
Au   14.864618   13.315219   13.724159
Au   16.479195   11.376865   12.672896
Au   15.113170   13.057959   10.994498
Au   16.209799   11.451290   15.439119
Au   13.981333   13.530455   19.211585
Au   18.838810   15.228896   17.399225
Au   13.517311   17.417042   10.526961
Au   18.528641   12.327491   14.249839
Au   13.389149   15.021122   11.929473
Au   15.678357   16.040594   13.624438
Au   17.251294   13.998827   12.387745
Au   20.090701   17.647487   13.516473
Au   17.056037   14.313643   15.393531
Au   16.430654   14.340701   18.352515
Au   17.319589   19.385632   16.938516
Au   20.704611   16.360526   15.777861
Au   15.724835   11.693212   18.163457
Au   15.661674   18.343871   11.925236
Au   15.276874   16.205332   16.514429
Au   17.484475   21.253752   15.050043
Au   15.057420   20.923645   16.182007
Au   17.931745   16.716691   12.176285
Au   19.323155   15.027806   13.851016
Au   17.975833   17.072532   15.361908
Au   18.139009   12.490633   17.101801
Au   20.276276   13.581967   15.874758
