56
Generated with con2xyz
Au   10.542438   13.874240   16.812754
Au   10.241876   15.548737   14.654033
Au   10.524271   16.014606   18.519611
Au   10.200065   17.675168   16.366568
Au   12.230466   13.663388   14.650949
Au   14.363323   11.867964   14.690543
Au   14.087672   13.580928   12.505637
Au   12.599655   12.038426   16.911227
Au   12.536138   14.147149   18.712853
Au   14.427478   14.034978   16.519206
Au   14.771575   10.431437   16.919470
Au   13.809111   15.373695   10.421031
Au   11.996399   15.455215   12.525643
Au   11.899828   17.697460   14.183096
Au   14.073886   15.817034   14.261000
Au   13.732083   17.613464   12.060174
Au   12.287927   15.926000   16.425336
Au   12.172067   18.199892   18.236890
Au   14.390966   16.328243   18.233725
Au   14.058129   18.129009   16.040970
Au   14.694794   14.666048   20.365875
Au   12.585276   16.408718   20.286041
Au   14.355329   18.466029   19.919635
Au   13.744274   19.809398   13.812859
Au   11.889382   19.812614   15.989010
Au   14.035452   20.219402   17.821840
Au   13.699545   21.714078   15.666165
Au   16.560501   10.332381   14.862789
Au   15.692809   15.320926   8.555207
Au   16.309502   11.842532   12.642220
Au   16.264269   13.955774   14.373981
Au   18.418113   12.262043   14.441829
Au   15.989435   13.538285   10.484573
Au   16.668789   12.312317   16.665085
Au   14.722910   12.443194   18.725273
Au   18.452054   14.411827   16.248581
Au   15.628969   17.512010   10.036194
Au   17.810290   15.676768   10.109531
Au   15.936867   15.741165   12.128260
Au   15.897799   17.990333   13.905865
Au   18.038580   16.146088   13.983935
Au   17.801599   17.940696   11.718573
Au   16.262679   16.237931   16.158213
Au   16.466739   16.733922   19.967620
Au   18.318354   16.656775   17.913395
Au   18.064317   18.435741   15.769263
Au   16.605282   14.498083   18.398680
Au   15.618528   19.633150   11.771848
Au   15.891731   20.213364   15.643297
Au   17.691938   20.001728   13.527684
Au   16.234139   18.523893   17.892198
Au   18.162599   13.880750   12.202636
Au   19.833114   16.072674   11.937623
Au   19.773988   18.231560   13.621168
Au   20.128855   14.398003   14.073738
Au   20.070877   16.560570   15.768669
