56
Generated with con2xyz
Au   13.425031   15.425170   9.529934
Au   13.822234   12.737765   9.072258
Au   17.148955   15.127937   12.837055
Au   17.377156   16.040241   15.564637
Au   15.100945   19.791467   9.617360
Au   17.482144   15.762819   10.064878
Au   19.379264   17.830599   14.666998
Au   15.468065   13.924226   10.935496
Au   16.900819   18.749752   16.209524
Au   14.440328   18.668960   14.920286
Au   13.120143   18.077543   10.264551
Au   13.197568   14.743594   12.351185
Au   14.807453   15.976794   14.302939
Au   11.622039   13.548251   10.461373
Au   17.569460   16.828669   18.173072
Au   17.980016   14.127035   17.644662
Au   15.743387   14.543254   8.300720
Au   17.466798   12.272891   12.198480
Au   19.384781   18.588228   17.248372
Au   18.696591   19.705818   12.700042
Au   19.081558   16.957802   12.043975
Au   11.271860   16.199198   11.071336
Au   18.837031   20.391361   15.309588
Au   10.963490   15.552528   13.702424
Au   16.680296   21.000518   11.454638
Au   12.542973   16.741113   15.655776
Au   15.121653   16.695330   11.518177
Au   15.002760   16.861014   16.998605
Au   11.319884   12.884540   13.083311
Au   16.031006   12.237634   18.285126
Au   15.155357   13.124681   13.643601
Au   13.847540   13.131526   19.495476
Au   13.210315   11.427444   14.422333
Au   18.248907   11.479425   16.879413
Au   13.499347   11.951527   11.700564
Au   17.678359   13.294608   14.901219
Au   19.324694   14.197268   11.465193
Au   19.846543   15.971405   16.751914
Au   15.416822   17.223631   8.848155
Au   19.725323   15.128784   14.072957
Au   16.786771   17.900329   13.483130
Au   17.170518   18.459558   10.705896
Au   16.423964   20.546327   14.106401
Au   12.755405   17.505307   12.992903
Au   15.665533   14.977015   18.939384
Au   13.137767   14.947535   17.709287
Au   14.677997   19.385733   12.244656
Au   12.783602   14.039512   15.111351
Au   13.513447   12.176174   17.047256
Au   15.385426   14.091659   16.343173
Au   15.748445   11.313005   15.677144
Au   18.047935   10.667474   14.341963
Au   17.681858   13.068243   9.559790
Au   15.756840   11.322835   10.270722
Au   20.127784   13.311904   16.105670
Au   19.892546   12.445898   13.514666
