56
Generated with con2xyz
Au   11.849961   17.557784   16.188859
Au   12.062318   13.642444   16.278440
Au   11.864341   15.555510   14.293497
Au   12.021128   15.631202   18.157125
Au   13.768839   17.593502   14.160760
Au   11.797516   19.475949   14.195827
Au   14.076236   11.780912   16.261706
Au   15.955281   11.798773   14.272218
Au   15.835454   13.649386   12.224646
Au   16.074421   11.865618   18.133111
Au   13.620358   17.507890   10.269835
Au   13.720136   15.510198   12.188309
Au   15.691625   15.570860   10.229564
Au   13.856614   13.581300   14.193853
Au   13.896450   15.657828   16.203298
Au   15.973021   13.757507   16.178284
Au   15.864948   15.644495   14.086345
Au   13.959305   13.648329   18.274587
Au   13.970245   15.738052   20.096118
Au   16.060121   13.795976   20.093274
Au   15.957184   15.770638   18.180385
Au   16.013866   15.841366   21.775755
Au   15.561855   17.546785   8.470823
Au   13.569901   19.597235   12.092022
Au   15.712864   17.619422   12.064840
Au   15.564928   19.592245   10.153816
Au   11.785033   17.483589   12.320754
Au   13.702038   19.665007   16.170522
Au   15.851908   17.748550   16.156835
Au   15.706953   19.633190   14.064829
Au   13.818202   17.734757   18.179355
Au   15.900941   17.817986   20.015378
Au   15.792519   19.740029   18.020653
Au   15.563190   21.524821   12.112884
Au   13.675708   21.473004   14.096433
Au   15.663278   21.589388   15.973076
Au   17.956227   11.891521   16.153259
Au   17.800463   15.648921   12.016857
Au   17.930710   13.684745   14.067356
Au   17.949864   15.795661   16.089966
Au   19.887155   13.860135   16.069029
Au   19.817004   15.732440   13.942866
Au   18.066259   13.787107   18.163010
Au   17.991472   15.873004   20.019905
Au   19.892348   15.886120   18.009650
Au   17.635576   17.655394   10.106975
Au   17.677339   19.746754   11.960765
Au   19.648641   17.779969   12.000572
Au   17.822938   17.740572   14.032484
Au   17.774273   19.845973   16.059278
Au   19.803523   17.935894   16.065287
Au   19.618997   19.806924   13.944772
Au   17.902458   17.881773   18.108939
Au   17.555183   21.633212   13.980590
Au   21.606947   15.947543   15.927441
Au   21.482707   17.842049   13.976954
