56
Generated with con2xyz
Au   19.311717   15.434603   11.260893
Au   17.328112   16.423894   12.885473
Au   17.295198   15.604235   15.880554
Au   16.279533   15.309598   18.579675
Au   20.422315   12.914775   16.141171
Au   17.520264   17.259679   10.273139
Au   19.137108   17.434548   14.763487
Au   19.966758   16.694036   17.317666
Au   18.679634   16.079503   19.751855
Au   16.639137   19.060756   12.152009
Au   16.390751   18.219566   14.871224
Au   17.356570   17.815647   17.596665
Au   16.453046   17.623880   20.137256
Au   14.999759   16.918489   11.310927
Au   14.773376   16.084787   14.015235
Au   14.776633   16.842567   16.728354
Au   13.934117   16.487532   19.298523
Au   16.587522   14.715569   10.780138
Au   16.433583   13.865855   13.548759
Au   15.030120   14.056497   16.066561
Au   13.961688   13.775351   18.608366
Au   18.367086   12.891360   11.801127
Au   19.163456   14.556763   14.154891
Au   17.677576   12.663174   15.771120
Au   16.330590   12.615651   18.139019
Au   19.269812   18.222479   12.118150
Au   21.673753   18.000580   15.461960
Au   21.345046   16.738807   19.685895
Au   18.311254   20.014228   14.158066
Au   21.673105   18.888776   18.011549
Au   19.378646   18.641376   19.402875
Au   19.371179   19.463954   16.672774
Au   16.696501   20.359017   16.555910
Au   17.189593   20.095690   19.182096
Au   14.071136   18.693594   13.222197
Au   14.056331   19.459399   15.871957
Au   14.852223   19.032491   18.459504
Au   12.540380   16.509799   12.464703
Au   12.468157   17.278701   15.054690
Au   12.450695   18.015332   17.652122
Au   14.070881   14.330756   11.953480
Au   12.584684   14.487253   14.393034
Au   12.489465   15.308598   17.017235
Au   15.695221   12.206924   11.482300
Au   14.167034   12.298758   13.841105
Au   12.857664   12.585264   16.355354
Au   16.805406   11.162252   13.673418
Au   19.527456   11.780519   13.897445
Au   15.279879   11.299263   16.041735
Au   21.071599   16.380468   13.081650
Au   21.370198   14.469731   18.173080
Au   18.693373   14.133954   17.859360
Au   20.957941   13.653301   12.479172
Au   21.554736   15.250194   15.475731
Au   22.866224   16.576694   17.449676
Au   15.685563   20.759268   14.067020
