56
Generated with con2xyz
Au   11.948288   19.291693   14.927389
Au   12.941099   14.711018   16.167791
Au   11.250547   16.898325   16.086281
Au   12.307902   16.120526   18.517257
Au   13.738661   17.229394   15.004393
Au   16.137788   21.368802   13.740671
Au   14.347785   11.069286   18.550100
Au   16.181632   10.753142   16.714991
Au   16.087203   12.403013   14.638022
Au   15.133407   12.737348   20.403479
Au   13.720438   13.569585   13.740176
Au   16.219633   13.964446   12.418772
Au   16.463395   15.962336   10.577680
Au   13.783392   12.090981   16.100570
Au   14.830829   16.376705   17.527498
Au   15.573372   13.500324   17.589758
Au   15.569768   15.057741   15.071026
Au   13.059205   13.452595   18.622029
Au   14.050760   17.892787   19.766870
Au   14.547867   15.292343   20.032105
Au   17.530201   15.481697   17.100213
Au   17.198566   14.432374   19.736154
Au   14.335462   15.972017   12.463005
Au   12.545930   18.110427   12.551678
Au   15.217697   18.716965   13.134226
Au   12.940062   19.996537   10.704260
Au   11.924794   15.648354   13.758265
Au   13.434135   20.780355   13.167510
Au   16.377074   17.834462   15.711529
Au   17.925516   19.210315   13.796503
Au   12.972495   18.572385   17.384000
Au   16.721035   17.077103   19.436632
Au   14.545229   20.008576   15.587554
Au   15.483117   20.617737   11.171006
Au   17.257212   20.495206   16.187707
Au   19.917814   19.654916   15.735740
Au   18.100162   12.704940   16.570973
Au   17.025434   16.561577   13.163889
Au   18.230932   14.292967   14.375033
Au   20.649113   15.353078   13.708282
Au   18.732899   14.968957   11.756660
Au   19.618497   17.480282   12.337094
Au   17.215886   11.767067   18.999403
Au   19.402528   16.124117   18.917430
Au   19.456311   13.451675   18.722218
Au   14.639068   17.982749   10.549525
Au   18.121185   21.054243   11.817314
Au   17.297807   18.520553   11.116925
Au   18.994461   16.967739   15.154273
Au   18.365040   18.319603   17.615136
Au   20.904025   17.379506   17.016080
Au   20.409037   20.024348   13.030236
Au   15.653987   19.173131   18.017553
Au   18.807972   21.771672   14.330341
Au   20.134713   14.792839   16.459422
Au   21.450126   17.874238   14.355492
