56
Generated with con2xyz
Au   16.206348   15.788660   11.763018
Au   14.063465   14.030579   11.665529
Au   15.538658   13.079596   16.093425
Au   15.934212   14.766575   18.471420
Au   14.953441   15.330772   21.031590
Au   15.105527   14.895078   14.087045
Au   17.591201   13.492256   13.886267
Au   17.547764   15.100256   16.159127
Au   17.549373   15.936772   20.314521
Au   15.752578   17.676939   13.925763
Au   18.090214   16.307841   13.663231
Au   14.997713   16.518201   16.367022
Au   13.983947   16.801319   19.001228
Au   11.653997   14.730657   12.836434
Au   12.520932   15.923835   15.208473
Au   13.365760   14.354978   17.498671
Au   12.358826   14.934170   20.056813
Au   12.290276   12.081310   12.417690
Au   12.928424   13.104048   14.940092
Au   13.779361   11.516492   17.577133
Au   16.786605   13.399182   20.794676
Au   14.416992   11.445267   10.785114
Au   15.129922   11.901095   13.447779
Au   20.119925   14.123516   16.484200
Au   18.513397   13.829083   18.714946
Au   17.780174   10.704075   14.171048
Au   20.218849   14.593288   13.769891
Au   18.986775   16.428118   18.046773
Au   18.994419   12.021005   12.081884
Au   17.672569   17.875069   15.955136
Au   16.527407   17.595075   18.391050
Au   18.714323   14.676858   11.551765
Au   13.226815   18.530338   14.515680
Au   15.352053   19.188759   16.229482
Au   13.641016   16.646639   12.513990
Au   11.124433   17.401608   13.170727
Au   12.957468   18.481171   17.168995
Au   9.810023   15.583421   14.652374
Au   10.724327   17.919305   15.753007
Au   11.451952   16.350358   17.872751
Au   10.263777   12.819092   14.237253
Au   10.730838   14.035259   16.643935
Au   11.642757   12.651798   18.821881
Au   14.198930   12.964780   19.898456
Au   11.100498   10.256655   13.941449
Au   11.266569   11.375887   16.397336
Au   13.503881   10.326354   15.118354
Au   13.408898   9.643132   12.488465
Au   15.625356   9.117894   13.850671
Au   16.012507   10.385362   16.253005
Au   16.707008   10.385017   11.712190
Au   18.156465   12.220793   16.475437
Au   16.377939   11.937617   18.544903
Au   16.584836   13.062546   11.255433
Au   20.078712   12.092697   14.570698
Au   20.030940   16.619612   15.563757
