56
Generated with con2xyz
Au   14.469789   16.174534   9.406742
Au   15.675783   15.681347   11.836700
Au   16.974414   15.154057   14.396058
Au   18.222657   14.626708   16.795714
Au   17.144025   16.729224   9.695864
Au   18.450865   16.236333   12.225542
Au   19.668899   15.696652   14.784767
Au   15.173071   18.283570   10.980483
Au   16.435180   17.839104   13.554498
Au   17.617369   17.291986   16.161069
Au   13.035913   16.575722   11.728712
Au   14.259422   16.054041   14.284320
Au   15.625254   15.429876   16.803564
Au   13.673301   14.007421   10.858390
Au   14.914034   13.398302   13.393458
Au   16.253335   12.891413   15.896484
Au   16.213753   14.074211   9.610556
Au   17.499183   13.504337   12.122487
Au   18.746695   12.997837   14.662610
Au   20.481025   19.256618   11.899191
Au   21.106207   16.747596   12.625175
Au   14.525411   20.813773   14.815660
Au   19.161088   18.298855   14.054862
Au   15.974964   20.381253   12.620275
Au   17.094861   19.928844   15.240883
Au   13.749787   18.703771   13.323220
Au   14.941011   18.237178   15.977486
Au   14.942407   17.281499   18.636848
Au   11.675343   17.008389   14.196308
Au   14.663836   19.585134   19.788962
Au   12.243817   14.384516   13.260341
Au   13.559763   13.771558   15.834868
Au   12.897693   11.791944   12.359066
Au   14.216458   11.206791   14.956483
Au   15.432680   11.854268   11.077905
Au   16.762703   11.267039   13.711432
Au   18.922759   14.621682   9.931650
Au   19.234799   11.401038   12.382903
Au   19.901778   17.266362   10.151843
Au   20.243951   14.057992   12.606054
Au   17.886676   18.852213   11.311817
Au   18.589619   20.745936   13.117440
Au   14.197352   20.543266   17.419771
Au   12.373455   19.224588   15.702469
Au   12.579013   18.581502   18.322482
Au   16.576794   19.292312   17.889853
Au   10.605194   17.415212   16.631249
Au   12.997327   16.353134   16.797905
Au   11.036591   14.829392   15.660508
Au   11.641795   12.188903   14.760773
Au   12.306646   9.737130   13.897721
Au   14.710841   9.761368   12.686552
Au   17.191913   9.871798   11.469587
Au   18.022011   11.936006   9.938814
Au   20.612930   12.577544   10.385344
Au   21.511513   15.132126   10.491354
