56
Generated with con2xyz
Au   12.257036   18.087037   17.468660
Au   11.239072   15.939616   16.127283
Au   10.870076   18.581798   15.135378
Au   13.801304   14.964010   15.696344
Au   13.297872   17.604047   14.688400
Au   14.812978   21.380374   13.948615
Au   11.904158   13.366039   16.972467
Au   16.358763   11.894027   16.462655
Au   15.856928   11.254651   13.832265
Au   19.046837   11.825337   16.996400
Au   11.702554   13.790104   14.332601
Au   15.223840   13.886061   11.173043
Au   15.113978   16.625532   11.191477
Au   13.621459   12.486088   12.786941
Au   14.812860   17.095011   17.152757
Au   16.548392   14.851873   16.520580
Au   15.716985   13.932596   13.923658
Au   14.539718   13.310554   17.877204
Au   13.830085   17.543300   19.725049
Au   15.582837   15.412082   19.222049
Au   17.498411   17.593023   16.648813
Au   18.223554   15.962144   18.750250
Au   13.472110   15.273165   12.872727
Au   12.722484   17.724203   11.890911
Au   15.850207   16.711590   14.045241
Au   15.056056   18.991838   12.674931
Au   11.041770   16.401957   13.514193
Au   12.519311   19.935552   13.341323
Au   15.523993   19.249732   15.486728
Au   18.023000   18.618709   14.083782
Au   12.853679   15.465055   18.361958
Au   16.456944   18.047266   19.284468
Au   12.950427   20.265990   15.930741
Au   17.271563   20.668226   12.501944
Au   15.109698   21.796758   16.601313
Au   19.417705   19.721413   16.303888
Au   13.813689   12.181510   15.430727
Au   17.398008   15.317281   12.037758
Au   17.406433   12.596916   12.090126
Au   18.145105   12.902019   14.707012
Au   20.788693   12.942300   15.113626
Au   19.750213   14.008755   12.815432
Au   17.392524   13.324112   18.550870
Au   19.071864   18.551384   18.723798
Au   19.417618   14.449492   16.840841
Au   17.387203   18.043276   11.474093
Au   19.676427   19.359189   11.858420
Au   19.760997   16.721689   12.374521
Au   18.426717   15.798489   14.618984
Au   17.098605   20.220817   17.695641
Au   20.187961   17.082649   16.683258
Au   19.699737   20.940200   13.916813
Au   14.441877   19.687411   18.186736
Au   17.347170   21.317465   15.145653
Au   21.115418   15.571629   14.599275
Au   20.742289   18.354002   14.291292
