56
Generated with con2xyz
Au   12.263198   18.142321   17.415819
Au   11.145069   15.964631   16.116174
Au   10.852750   18.577568   15.120181
Au   13.681338   14.860944   15.717054
Au   13.239315   17.515194   14.695571
Au   14.793909   21.208695   13.854465
Au   11.699749   13.367852   16.915670
Au   16.299492   11.958470   16.419571
Au   15.877652   11.105087   13.842848
Au   16.705534   12.997578   18.965401
Au   11.655796   13.735087   14.268585
Au   15.249534   13.807969   11.246600
Au   14.994656   16.480271   11.002972
Au   13.649893   12.408512   12.842128
Au   14.775557   17.061739   17.108833
Au   16.252702   14.678795   16.818837
Au   15.788926   13.717400   14.087592
Au   14.193641   13.137289   17.969678
Au   13.806963   17.659375   19.615938
Au   15.245679   15.311002   19.381256
Au   17.553957   17.206320   16.659130
Au   17.983682   15.422269   18.909406
Au   13.529646   15.208346   12.911936
Au   12.619295   17.566785   11.798701
Au   15.756538   16.458524   14.315808
Au   14.939225   18.645930   12.690103
Au   11.011319   16.327791   13.498476
Au   12.463223   19.786248   13.295456
Au   15.848815   19.077706   15.338768
Au   18.116711   17.897792   13.889079
Au   12.712665   15.505077   18.325250
Au   16.507754   17.776106   19.259416
Au   13.264234   20.124628   15.836613
Au   17.137305   20.293509   12.675321
Au   15.925752   21.564458   16.320162
Au   18.378471   20.421561   15.201246
Au   13.724564   12.087631   15.464637
Au   17.290790   15.406906   12.192768
Au   17.458843   12.619845   12.129214
Au   18.336088   12.345611   14.606996
Au   20.612192   13.813102   15.259961
Au   19.673136   14.193576   12.777398
Au   18.691528   13.346368   17.144789
Au   19.206996   17.851605   18.768646
Au   19.991981   15.807052   17.046363
Au   17.241927   17.958645   11.188700
Au   19.405442   19.519106   11.336489
Au   19.682149   16.869776   11.912452
Au   18.224241   15.126169   14.878052
Au   17.551613   19.773197   17.695821
Au   19.971271   18.449161   16.245702
Au   19.464061   21.589441   13.038490
Au   14.818241   19.657192   18.016681
Au   17.145926   22.554593   14.132596
Au   20.601389   16.445453   14.405179
Au   20.527466   19.152468   13.688000
