56
Generated with con2xyz
Au   15.786682   15.509355   9.693526
Au   16.722444   15.790352   12.344026
Au   17.167939   16.693068   15.060460
Au   16.828080   15.990588   18.201525
Au   16.646086   15.684857   20.917248
Au   17.755901   17.141672   10.097039
Au   19.877506   17.430692   14.234820
Au   19.320625   16.399324   16.819564
Au   19.045556   16.371114   19.764690
Au   15.358750   17.928250   11.426542
Au   15.605088   18.749084   14.153045
Au   17.467345   18.543854   17.270796
Au   16.969866   18.229337   20.024620
Au   13.876083   15.667019   11.544286
Au   14.509393   15.978322   14.219392
Au   14.883367   17.355294   16.683823
Au   14.563054   16.989139   19.543109
Au   15.648818   13.381998   11.354309
Au   16.214003   13.734927   14.166258
Au   15.080535   14.522885   16.592952
Au   14.948307   14.223275   19.399093
Au   18.152880   14.308021   10.564952
Au   18.884889   14.787763   13.941153
Au   17.895177   14.019286   16.445816
Au   17.687467   13.636907   19.372513
Au   19.697304   16.227750   11.719877
Au   21.953296   16.726200   15.893981
Au   21.296297   17.101597   18.477560
Au   17.864146   18.282136   12.518139
Au   20.434295   18.917709   16.534088
Au   19.449199   19.056376   19.065682
Au   18.218663   19.577053   14.840317
Au   18.813835   21.008425   17.025382
Au   17.207308   20.732539   19.036867
Au   13.174548   18.044168   13.141164
Au   13.581239   19.531363   15.798832
Au   14.920250   19.511266   18.418339
Au   11.878088   15.636735   13.329814
Au   12.303798   17.064426   15.593665
Au   12.588806   18.254152   18.012026
Au   13.594011   13.429148   13.180680
Au   12.518655   14.226304   15.560885
Au   12.880050   15.555355   17.938087
Au   15.459688   11.321450   13.113797
Au   14.352346   12.030839   15.480226
Au   13.282208   12.825838   17.816565
Au   17.950204   12.346866   12.564466
Au   17.077375   11.392580   15.358912
Au   16.042503   12.195792   17.747782
Au   21.589337   15.398861   13.524699
Au   19.532159   12.229311   14.788361
Au   18.846572   11.855291   17.511497
Au   20.318200   13.526199   12.066797
Au   20.889795   14.243464   15.865229
Au   20.080468   14.248876   18.397104
Au   16.096663   20.628969   16.250483
