56
Generated with con2xyz
Au   17.383712   17.468114   16.639218
Au   19.305708   17.104749   14.552008
Au   19.957949   17.103872   17.454055
Au   14.586264   17.312466   16.381303
Au   15.557612   16.894079   18.980909
Au   15.865998   19.507964   17.716283
Au   18.833832   19.855207   17.077015
Au   15.923453   14.880781   17.043472
Au   18.613746   14.868161   16.181882
Au   17.990024   15.455295   18.855522
Au   18.009818   18.236667   19.299840
Au   16.601203   15.958311   14.476943
Au   16.050161   18.785122   14.484577
Au   21.882028   16.547868   15.543035
Au   22.411931   16.753059   18.274719
Au   20.617806   17.859631   20.201084
Au   11.968310   17.217545   15.949145
Au   12.795969   16.778853   18.529175
Au   13.856362   16.438050   21.053736
Au   14.275228   21.386469   16.349194
Au   16.871815   21.243975   15.683509
Au   20.960662   19.052879   15.546862
Au   14.505094   12.561493   17.217593
Au   17.129306   12.428076   16.427950
Au   19.776813   12.465475   15.647428
Au   18.593202   13.666566   20.823289
Au   16.249994   17.750703   21.543487
Au   16.593110   20.292435   20.487775
Au   15.822551   14.565423   12.347778
Au   16.227815   17.238261   12.028937
Au   16.807141   19.993323   12.173091
Au   18.657049   16.334231   21.402851
Au   18.675974   19.034174   21.820706
Au   20.423742   14.615296   14.179172
Au   18.755071   18.173773   12.102015
Au   16.198058   15.009854   21.000162
Au   14.157270   18.977505   20.069615
Au   14.043624   16.729026   13.775717
Au   14.250485   19.037994   12.317042
Au   21.379026   19.367265   18.160461
Au   19.377130   20.533073   19.690406
Au   13.284666   19.292661   14.830346
Au   13.025215   19.337899   17.601414
Au   21.215557   14.455330   17.023452
Au   20.602987   15.168927   19.605762
Au   13.226932   14.878215   16.475692
Au   14.123243   14.446822   19.163247
Au   14.572625   21.449179   19.020647
Au   17.257795   21.760087   18.346657
Au   16.532076   13.021157   19.081044
Au   19.210274   13.003528   18.260800
Au   14.961707   21.220167   13.731865
Au   18.654673   19.787244   14.251391
Au   15.087789   13.608877   14.759140
Au   17.777083   13.396078   13.944383
Au   18.425767   15.517210   12.408542
