56
Generated with con2xyz
Au   10.522613   14.443495   17.052610
Au   10.279584   16.017797   14.815481
Au   10.759079   16.677814   18.622105
Au   10.506616   18.253295   16.394714
Au   12.097675   13.973292   14.848300
Au   14.060147   11.990071   14.916491
Au   13.848540   13.602358   12.649143
Au   12.415152   12.437472   17.180591
Au   12.603649   14.641070   18.857180
Au   14.389665   14.243216   16.610291
Au   14.439712   10.642382   17.203828
Au   13.708479   15.288445   10.498000
Au   11.947192   15.645616   12.618841
Au   12.079827   17.970416   14.158322
Au   14.103964   15.942727   14.282656
Au   13.829958   17.599723   11.958671
Au   12.421376   16.315615   16.487238
Au   12.586787   18.691020   18.157757
Au   14.624735   16.619144   18.187000
Au   14.371839   18.326761   15.905310
Au   14.858914   15.049890   20.400340
Au   12.913223   16.974935   20.289758
Au   14.843282   18.841578   19.745604
Au   14.024708   19.879169   13.554704
Au   12.381691   20.202094   15.839804
Au   14.600347   20.500882   17.550572
Au   14.389792   21.919250   15.257119
Au   16.124006   10.284757   15.084526
Au   17.570908   15.226027   10.034936
Au   15.903945   11.693189   12.786499
Au   16.127595   13.872905   14.423381
Au   18.125727   12.003337   14.490830
Au   15.651094   13.352260   10.591388
Au   16.480759   12.328332   16.779080
Au   14.633620   12.748808   18.889922
Au   18.421664   14.234594   16.167882
Au   15.634469   17.161272   9.933214
Au   19.731348   15.521590   11.692671
Au   15.871684   15.583008   12.143416
Au   16.109871   17.958684   13.717410
Au   18.076291   15.884705   13.839378
Au   18.091643   19.759473   13.151044
Au   16.399151   16.258367   16.049316
Au   16.792306   16.913164   19.837249
Au   18.557075   16.554962   17.713198
Au   18.404513   18.222661   15.479404
Au   16.670496   14.607968   18.372646
Au   15.868947   19.461659   11.445018
Au   16.445320   20.204763   15.418969
Au   16.073931   21.559846   13.138086
Au   16.653780   18.593924   17.685407
Au   17.909609   13.510134   12.170712
Au   17.893007   17.561634   11.469656
Au   19.979308   17.747737   13.272452
Au   19.995699   13.956230   13.927371
Au   20.222558   16.182730   15.513028
