56
Generated with con2xyz
Au   17.524569   17.475292   16.666670
Au   19.398217   16.989786   14.581156
Au   20.089202   16.848235   17.551257
Au   14.643457   17.295287   16.413243
Au   15.664071   16.950462   19.017707
Au   15.899571   19.497606   17.677190
Au   18.717932   20.015490   17.099742
Au   15.939788   14.889348   17.099137
Au   18.608470   14.781759   16.207442
Au   18.021455   15.429164   18.892919
Au   18.218753   18.271780   19.255066
Au   16.663107   15.971642   14.528381
Au   16.084940   18.797555   14.554993
Au   21.919391   16.341171   15.494797
Au   22.594532   17.583945   17.788921
Au   20.793911   17.574075   20.181462
Au   12.002221   17.245797   16.019549
Au   12.870719   16.818442   18.598283
Au   13.964579   16.453368   21.126595
Au   14.368530   21.387514   16.320582
Au   16.922149   21.317091   15.514085
Au   20.994945   18.866480   15.881254
Au   14.468173   12.586833   17.281426
Au   17.051367   12.394795   16.451510
Au   19.669818   12.317484   15.639184
Au   18.605222   13.610343   20.855593
Au   16.398103   17.768078   21.537274
Au   16.525651   20.243762   20.385934
Au   15.763569   14.616467   12.404507
Au   16.313212   17.245884   12.062606
Au   16.912330   19.978815   12.278819
Au   18.747860   16.309009   21.401919
Au   18.843543   19.044597   21.693771
Au   20.384135   14.446042   14.167767
Au   18.846785   18.123783   12.156238
Au   16.264140   15.018054   21.048222
Au   14.116875   18.938346   20.095860
Au   14.117627   16.684144   13.795414
Au   14.318761   18.996759   12.326411
Au   21.022765   19.592740   18.487770
Au   19.033128   20.909773   19.724655
Au   13.330043   19.266440   14.827954
Au   13.048266   19.354447   17.585905
Au   21.182653   14.223270   16.945864
Au   20.616544   14.929946   19.571995
Au   13.215117   14.900105   16.563078
Au   14.169404   14.485568   19.231439
Au   14.420736   21.390446   19.006251
Au   16.968288   21.913739   18.207816
Au   16.520751   13.005294   19.125605
Au   19.163930   12.903590   18.272782
Au   14.941946   21.214264   13.674494
Au   18.753299   19.657920   14.353652
Au   15.033051   13.680714   14.815979
Au   17.701814   13.362747   13.961765
Au   18.432413   15.463877   12.428269
