56
Generated with con2xyz
Au   10.484209   14.074631   16.903117
Au   10.154130   15.565103   14.611993
Au   10.581855   16.379317   18.365375
Au   10.257937   17.868620   16.084810
Au   12.061582   13.610822   14.705768
Au   14.151449   11.766930   14.829366
Au   13.802742   13.249083   12.498360
Au   12.495222   12.188563   17.087884
Au   12.563328   14.463229   18.677076
Au   14.356444   14.090926   16.452674
Au   14.626765   10.511660   17.146150
Au   13.547424   14.869431   10.301209
Au   11.799714   15.206588   12.409789
Au   11.844027   17.597909   13.847709
Au   13.939430   15.645160   14.048696
Au   13.595177   17.231910   11.711877
Au   12.276160   16.028147   16.269778
Au   12.302530   18.480283   17.818312
Au   14.471968   16.537535   17.984026
Au   14.107786   18.071872   15.591179
Au   14.818411   14.999544   20.232268
Au   12.694541   16.874415   20.057304
Au   14.890882   17.334575   21.468240
Au   13.726985   19.566867   13.261935
Au   12.044576   19.841227   15.438238
Au   14.555599   18.921035   19.377150
Au   14.192765   20.350022   17.055079
Au   16.312494   10.188189   15.029963
Au   15.968063   15.388488   9.221306
Au   16.000394   11.498285   12.685294
Au   16.103075   13.739828   14.253135
Au   18.206028   11.996569   14.345914
Au   15.605578   13.015866   10.434733
Au   16.564020   12.309857   16.649437
Au   14.704170   12.670359   18.754247
Au   18.392458   14.307408   15.943402
Au   16.063806   17.737965   10.573060
Au   18.171513   15.877232   10.733528
Au   15.709187   15.308279   11.910842
Au   15.833108   17.738732   13.388442
Au   17.940190   15.843243   13.560529
Au   18.309090   18.279468   12.074331
Au   16.231348   16.161088   15.800749
Au   16.683463   17.045587   19.537438
Au   18.392583   16.677490   17.391181
Au   18.052630   18.258641   15.122445
Au   16.633249   14.645944   18.160707
Au   16.157322   20.077368   12.094311
Au   15.913050   20.127268   14.879938
Au   18.310673   20.481774   13.622245
Au   16.338752   18.627470   17.283338
Au   17.855588   13.436888   12.005593
Au   20.337022   16.379264   12.415083
Au   20.351645   18.679272   13.785138
Au   19.952417   14.011662   13.702394
Au   20.108733   16.357409   15.177470
