56
Generated with con2xyz
Au   17.077524   17.469146   17.085642
Au   18.748771   17.884976   15.008171
Au   19.946770   17.421707   17.593327
Au   14.492243   16.830428   16.385342
Au   15.436842   16.629601   19.301489
Au   15.088392   19.175925   18.042352
Au   18.763174   19.886352   17.163176
Au   16.123255   14.717822   17.214765
Au   18.697627   15.272458   16.178336
Au   18.147282   15.615535   18.961716
Au   17.778031   18.409502   19.534228
Au   16.526732   15.647741   14.414811
Au   15.969184   18.370483   14.644440
Au   21.332162   16.889260   14.737240
Au   22.527267   17.691205   17.008966
Au   20.535426   18.188610   20.223319
Au   11.900217   16.488920   15.993423
Au   12.862819   17.316707   18.502233
Au   12.458211   19.956255   18.837078
Au   14.027298   21.440456   17.049678
Au   16.443720   20.735408   15.973008
Au   20.991478   19.429918   15.553373
Au   15.077519   12.180174   17.573493
Au   17.677280   12.562040   16.410731
Au   20.091081   13.271879   15.234178
Au   19.179735   13.797538   20.747813
Au   16.408843   17.535558   21.759276
Au   16.479279   20.230459   21.130512
Au   15.252462   13.925915   12.535122
Au   15.135177   16.697277   12.298217
Au   17.845279   20.123512   13.641951
Au   18.912270   16.398936   21.497489
Au   18.713929   19.058580   22.053600
Au   19.339991   15.550667   13.496037
Au   17.713341   17.723834   12.408376
Au   16.629180   14.841212   21.113756
Au   14.199519   18.760286   20.588437
Au   13.642410   15.238676   14.275519
Au   15.498397   19.425082   12.286933
Au   21.304176   19.796587   18.208026
Au   19.270934   20.623309   19.868335
Au   13.322326   17.935937   13.915436
Au   12.773693   19.082416   16.314797
Au   21.429529   15.151548   16.814792
Au   20.843284   15.546928   19.488920
Au   13.408942   14.342818   16.934817
Au   14.605954   14.035539   19.423619
Au   14.466832   21.391327   19.749710
Au   16.898115   21.220917   18.629178
Au   17.156072   12.942903   19.152110
Au   19.714074   13.423317   18.052328
Au   14.221167   20.483697   14.448435
Au   20.191256   18.771340   13.012994
Au   15.263680   13.138545   15.086907
Au   17.762256   13.314026   13.775396
Au   17.399119   15.142118   11.703019
