55
Generated with con2xyz
Au   17.262968   14.627334   11.063896
Au   17.802040   12.679418   12.950860
Au   21.780851   14.582501   11.880685
Au   16.046379   12.252935   15.046984
Au   20.586202   12.593721   13.351541
Au   14.953657   15.980516   11.282960
Au   21.594241   12.016461   15.797983
Au   22.162857   17.002667   10.914730
Au   15.429407   14.130524   13.201501
Au   14.129398   16.529037   13.889386
Au   14.902301   14.743759   15.853850
Au   16.791474   16.587741   13.349146
Au   13.999304   17.326917   16.511511
Au   17.415579   17.327474   10.801503
Au   19.244418   15.157291   12.917514
Au   19.734993   15.801821   10.275966
Au   15.190303   18.475017   12.001774
Au   15.429839   18.818128   14.647925
Au   17.653513   19.193283   12.871909
Au   19.864079   17.826588   12.078643
Au   22.387706   14.190291   17.241386
Au   18.837256   11.969327   15.393676
Au   17.212331   12.854089   17.396185
Au   18.221911   13.938956   19.704216
Au   19.931873   12.841716   17.790530
Au   16.010029   15.016746   18.374547
Au   22.814039   14.021554   14.364578
Au   20.311394   14.446645   15.458437
Au   23.572408   16.212286   15.829857
Au   23.875797   16.221363   12.908150
Au   17.537791   14.506584   15.105695
Au   16.594134   16.923732   16.331878
Au   18.681713   15.427052   17.518373
Au   20.991461   16.862562   16.917883
Au   15.306068   17.508289   18.921614
Au   18.604902   18.338722   17.661003
Au   22.609050   18.775509   12.836468
Au   19.582445   13.204466   10.916711
Au   21.470533   16.586708   14.004945
Au   18.978715   17.364669   14.923879
Au   17.854350   19.925346   15.461976
Au   22.119943   19.094585   18.340499
Au   22.351474   18.891356   15.574659
Au   15.829999   19.499462   17.281668
Au   17.915658   21.135546   17.899491
Au   20.221137   19.667480   14.037663
Au   20.277455   20.334527   16.736177
Au   20.782987   14.908408   19.303883
Au   24.711994   18.234621   14.474368
Au   22.990995   16.514083   18.651913
Au   20.383360   17.491516   19.653173
Au   17.756781   16.646830   19.811178
Au   24.439584   18.319039   17.201251
Au   19.804565   20.109379   19.452533
Au   17.170454   19.320218   19.745693
