55
Generated with con2xyz
Au   13.563076   13.857158   12.877993
Au   15.399756   11.810753   13.168098
Au   18.296617   13.528884   9.216697
Au   15.727551   11.102250   15.846159
Au   17.646775   11.806383   11.357778
Au   14.188555   15.216301   10.702162
Au   20.052535   10.811066   12.624756
Au   18.936025   16.300183   8.481520
Au   14.060664   13.188276   15.454261
Au   12.479746   15.366173   14.930139
Au   15.896855   13.350201   17.548023
Au   15.142791   15.601325   14.303393
Au   14.251549   15.531905   17.026799
Au   13.237636   16.778966   12.766247
Au   16.372523   14.177648   12.096618
Au   16.617428   15.634719   9.657118
Au   13.815092   17.725641   15.427620
Au   16.610238   18.027703   14.814446
Au   14.591868   19.141283   13.288019
Au   15.874966   17.069472   11.970158
Au   21.834906   12.923396   13.181791
Au   17.832292   10.924690   14.130987
Au   18.154265   11.926150   16.836012
Au   20.578801   12.869432   17.730601
Au   20.347280   11.760592   15.188229
Au   18.377405   14.279138   18.446650
Au   20.385877   12.734079   10.792608
Au   19.033116   13.280066   13.160731
Au   22.095301   14.988478   11.349893
Au   20.876705   14.665583   8.991450
Au   16.792887   13.407803   14.866478
Au   17.004040   15.737509   16.444273
Au   19.306063   14.306857   15.788797
Au   20.702527   15.507439   13.670154
Au   16.129291   15.707095   19.024113
Au   18.443562   17.103908   18.351093
Au   18.106944   17.847792   10.497176
Au   15.708699   13.045188   9.820029
Au   19.106444   15.287379   11.138807
Au   17.902915   15.898814   13.595410
Au   17.951003   19.321261   16.919822
Au   19.323946   17.242230   15.549015
Au   19.626378   17.996801   12.751515
Au   15.700144   17.899178   17.480817
Au   18.852980   19.988849   14.521511
Au   17.160956   19.484504   12.487898
Au   16.281807   20.627918   14.830638
Au   22.057228   13.967986   15.752986
Au   20.830765   17.190310   10.336463
Au   23.420670   15.163028   13.730917
Au   22.219566   16.722157   15.672949
Au   20.705811   15.691750   17.690291
Au   22.333252   17.443514   12.725930
Au   21.330363   19.021085   14.739674
Au   20.698764   18.450844   17.394932
