55
Generated with con2xyz
Au   11.742916   9.832392   12.846827
Au   15.512013   12.852975   12.767419
Au   15.740998   12.726398   15.567133
Au   14.649502   13.664355   18.020454
Au   13.616121   14.572733   20.367949
Au   16.216085   10.689517   11.277172
Au   16.498751   15.292267   16.573057
Au   16.249990   13.825869   20.198596
Au   15.416687   16.233429   19.109290
Au   12.688497   13.704993   10.228780
Au   14.801056   15.143040   14.278319
Au   13.748287   16.009262   16.747147
Au   17.126190   17.783462   17.557408
Au   15.317724   12.978544   10.049672
Au   12.810188   13.601084   12.953519
Au   12.905389   13.490900   15.759390
Au   11.846785   14.407875   18.257649
Au   14.469628   9.073402   12.656605
Au   13.689664   11.183919   14.197241
Au   13.865983   11.116411   17.006316
Au   12.858364   12.080473   19.439967
Au   17.235499   14.427727   11.346355
Au   14.753188   8.879859   15.483366
Au   18.050973   15.400528   18.844638
Au   17.419005   12.869728   17.872402
Au   18.137997   12.129486   12.579634
Au   17.610421   14.381965   14.066418
Au   16.564651   16.663660   12.854808
Au   14.624558   15.285412   11.416715
Au   15.551757   17.713520   15.253486
Au   19.616703   16.913873   17.334178
Au   12.881372   18.295128   15.517911
Au   14.471594   18.441632   17.718422
Au   12.740894   16.860214   19.145755
Au   13.854510   17.406868   13.062672
Au   11.972047   15.932224   14.458122
Au   11.122125   16.721705   16.954945
Au   11.959535   15.879247   11.709017
Au   10.179346   14.328611   13.133668
Au   10.297067   14.283153   15.920210
Au   10.910275   12.162016   11.642951
Au   10.893046   12.015514   14.406125
Au   11.137838   11.925896   17.248166
Au   13.520990   11.310577   11.312405
Au   11.766506   9.711801   15.689693
Au   12.128162   9.622615   18.463412
Au   12.717873   7.700857   14.182700
Au   12.870664   7.573821   16.897174
Au   14.759534   8.890040   18.278790
Au   16.506389   10.459985   14.015907
Au   16.623047   10.412574   16.864212
Au   15.530136   11.334520   19.255986
Au   18.369502   12.033606   15.348379
Au   19.124352   14.491232   16.396969
Au   18.194688   16.888419   15.103554
