55
Generated with con2xyz
Au   9.408680   15.019045   14.456132
Au   15.584077   14.839044   13.023799
Au   16.328470   12.688992   14.692216
Au   15.650555   13.458332   17.424142
Au   14.828032   12.011898   19.696448
Au   15.367163   13.036484   10.877549
Au   16.737075   15.323692   15.522041
Au   17.444348   12.468586   19.140522
Au   16.897932   15.165462   19.279257
Au   13.403354   17.800970   12.149003
Au   14.446511   16.889242   14.743100
Au   15.018216   16.276796   17.536761
Au   17.635996   17.091513   17.411290
Au   14.417572   15.676954   10.654948
Au   12.769397   15.237135   13.078842
Au   13.541150   14.425320   15.768211
Au   12.817366   13.009633   18.123257
Au   13.874521   12.634784   13.279188
Au   13.567215   10.769676   11.428448
Au   13.998590   11.666411   15.924363
Au   13.207444   10.313396   18.195270
Au   17.064620   15.255990   10.709122
Au   14.543127   8.975450   13.307226
Au   18.549638   14.334850   17.379676
Au   18.063822   11.734936   16.585227
Au   17.785847   13.167541   12.278962
Au   18.245151   15.795359   13.099294
Au   15.041227   19.331885   13.855761
Au   16.109860   17.401284   12.212796
Au   15.623408   18.776865   16.479845
Au   19.357143   16.248787   15.548345
Au   12.407678   18.796264   14.406218
Au   13.074266   18.154407   16.917194
Au   14.323655   14.654380   19.676751
Au   10.755081   17.063378   12.941593
Au   11.600519   16.382475   15.445836
Au   12.410103   15.783589   18.081721
Au   11.803412   16.204008   10.596363
Au   8.839718   12.589704   15.751213
Au   10.696426   14.146599   16.811310
Au   10.331632   14.436216   11.948011
Au   11.299564   13.050720   14.342833
Au   11.251910   11.321772   16.490407
Au   12.688283   13.489113   10.858617
Au   9.757654   10.588159   14.268119
Au   12.403851   10.338916   14.043977
Au   8.677436   12.712041   13.104383
Au   11.022211   11.656618   12.014402
Au   13.953579   8.985913   15.967432
Au   16.126876   10.953305   12.479941
Au   16.333946   9.934992   15.094835
Au   15.866671   10.556699   17.706350
Au   18.484453   11.111617   13.935617
Au   18.982256   13.663731   14.743097
Au   17.313392   17.888833   14.640419
