55
Generated with con2xyz
Au   12.434391   14.425216   12.898142
Au   14.462239   12.719670   12.798538
Au   18.452769   13.430284   9.060424
Au   15.818707   11.039001   15.291315
Au   16.349572   10.910455   12.547457
Au   16.806859   13.459419   11.430031
Au   20.628143   10.761103   12.382165
Au   18.790908   16.085048   8.179442
Au   13.898442   13.326159   15.332617
Au   12.396849   15.799379   15.082345
Au   15.969474   13.223149   17.081086
Au   14.986551   15.408484   13.939725
Au   14.353326   15.564871   16.864530
Au   13.233931   17.049620   12.720843
Au   14.416153   14.952364   11.189672
Au   16.625547   15.473060   9.628167
Au   14.148259   17.856760   15.244740
Au   16.820721   17.906650   14.300329
Au   14.748702   19.337405   13.096881
Au   15.878995   17.152817   11.756039
Au   22.100121   13.066278   12.864384
Au   18.436000   10.663562   14.078263
Au   18.248316   11.830525   16.493095
Au   20.718432   12.835379   17.401670
Au   20.763326   11.764453   14.927835
Au   18.451261   14.145002   18.066459
Au   20.733533   12.768556   10.483632
Au   19.229930   13.052407   12.822033
Au   22.162755   15.197626   11.023728
Au   20.946929   14.753471   8.683397
Au   16.805734   13.209415   14.323469
Au   16.977671   15.573850   16.020097
Au   19.320824   14.130830   15.418215
Au   20.660570   15.457797   13.334198
Au   16.271940   15.562742   18.713397
Au   18.519139   16.950326   18.020611
Au   18.034480   17.786326   10.084015
Au   18.441784   11.301657   10.867618
Au   19.208917   15.243996   10.868229
Au   17.758901   15.554224   13.183466
Au   15.884340   20.083021   15.483574
Au   19.308776   16.981131   15.284132
Au   19.232011   17.917543   12.544631
Au   16.031702   17.891284   17.205177
Au   18.302972   19.271754   16.538530
Au   17.087707   19.589541   11.847816
Au   18.307168   20.239025   14.075555
Au   22.155259   14.133667   15.416032
Au   20.718105   17.282058   10.035220
Au   23.433146   15.454745   13.381262
Au   22.151993   16.939301   15.241642
Au   20.798632   15.590294   17.323074
Au   21.988681   17.649485   12.497002
Au   20.742854   19.164816   14.526242
Au   20.779524   18.334246   17.149822
