55
Generated with con2xyz
Au   14.473529   14.733554   14.261636
Au   16.810105   14.990224   12.778459
Au   17.023013   15.184374   15.648152
Au   11.909720   14.079498   13.420463
Au   12.506112   14.472623   16.233000
Au   10.176883   14.360412   11.157945
Au   15.725571   17.273476   14.224147
Au   13.577371   12.164383   14.995397
Au   16.358342   12.669284   14.396237
Au   15.113676   13.556171   16.901955
Au   14.600470   16.329639   16.622673
Au   14.363989   12.669526   12.266083
Au   14.319403   16.280548   11.971005
Au   19.083896   15.382595   11.561682
Au   19.359590   15.558286   14.244009
Au   19.350232   15.646068   16.980168
Au   11.624395   11.998562   11.763062
Au   9.933137   13.721803   15.609524
Au   10.567935   14.333524   18.144697
Au   9.827012   15.703430   13.766053
Au   15.736361   18.877822   16.610235
Au   18.169161   17.740928   15.644900
Au   12.690479   9.693146   15.742098
Au   15.392147   10.072859   15.316907
Au   18.083001   10.731733   14.661891
Au   15.621046   12.498244   19.358466
Au   15.106301   15.212974   19.182866
Au   12.831631   18.344608   16.721696
Au   13.330664   10.231473   13.138309
Au   15.483807   14.416902   10.336189
Au   14.101695   19.413731   14.497295
Au   17.531290   14.051419   18.217677
Au   14.586562   17.894723   18.849231
Au   17.015460   12.554052   11.456873
Au   16.803991   16.768257   10.630501
Au   13.059076   13.400437   18.817096
Au   12.502309   16.190602   18.470765
Au   13.075294   18.728916   12.118106
Au   14.463192   17.948688   9.933295
Au   18.127768   17.609967   12.865022
Au   16.892505   19.740570   14.313235
Au   12.798103   14.288044   10.706457
Au   10.729553   16.459626   16.288322
Au   18.914170   13.085965   13.219384
Au   18.835816   13.122383   15.911342
Au   9.286153   12.970524   13.135677
Au   11.569870   11.930841   17.015229
Au   12.672771   16.925903   14.356920
Au   17.028542   16.802316   17.990811
Au   14.143652   11.047347   17.604863
Au   16.936337   11.513801   17.064498
Au   11.555986   16.521768   11.851621
Au   15.768571   18.937269   12.008587
Au   11.029001   11.350891   14.352897
Au   16.043647   10.453337   12.771311
