55
Generated with con2xyz
Au   10.435779   14.059379   14.990108
Au   9.497159   16.559693   14.702512
Au   10.636457   16.031678   17.159898
Au   10.975658   18.499462   15.905852
Au   11.185792   11.596476   15.578376
Au   11.935713   12.845092   12.946344
Au   15.330575   10.892763   12.565251
Au   12.365111   14.266077   10.577411
Au   13.252997   10.806863   14.224946
Au   11.619018   13.513457   17.459874
Au   13.484792   11.487982   17.032486
Au   13.378521   13.458551   15.185957
Au   13.691914   13.348759   19.137573
Au   12.510330   16.993968   11.047989
Au   10.873147   15.372619   12.586915
Au   11.101224   18.102929   13.161119
Au   13.717428   14.981148   12.783048
Au   12.760814   19.692062   11.696948
Au   12.257373   16.112733   14.930343
Au   12.134765   18.005748   18.364319
Au   13.615758   15.552845   17.410331
Au   13.799393   18.127124   16.133306
Au   11.971678   15.452286   19.501597
Au   14.199299   17.050394   19.723327
Au   12.652561   20.107013   14.371460
Au   12.540795   20.418998   17.076949
Au   14.658106   19.441555   18.386043
Au   14.980754   20.624013   15.772721
Au   17.828993   11.196842   13.622471
Au   14.756478   15.697831   10.204522
Au   14.766831   13.062144   10.992609
Au   16.058814   13.472625   13.387269
Au   18.718426   13.696450   12.849143
Au   17.313865   11.955293   11.153901
Au   15.653599   11.382066   15.264442
Au   15.510977   13.419280   17.065517
Au   17.834544   13.116693   15.475805
Au   17.190018   17.148473   10.060957
Au   17.208236   14.554812   10.739351
Au   13.901463   17.769728   13.359616
Au   14.958031   18.400100   10.858597
Au   16.186137   16.343448   12.572065
Au   18.865327   16.432285   12.072824
Au   15.325468   15.560466   15.217825
Au   16.010726   17.183834   17.591023
Au   17.696931   15.080555   17.302075
Au   16.377972   18.127245   14.853892
Au   15.801974   14.989272   19.265833
Au   17.358537   18.870724   12.186667
Au   15.137990   20.213475   13.059481
Au   17.484372   20.510149   14.477163
Au   17.098646   19.703046   17.075052
Au   18.064386   15.736237   14.612494
Au   19.081532   18.287279   14.123982
Au   18.584198   17.544029   16.627404
