55
Generated with con2xyz
Au   11.378446   13.622622   15.426518
Au   10.982126   15.798413   17.124182
Au   12.759326   15.872794   19.247822
Au   12.580635   18.035866   17.530823
Au   14.101906   13.412063   19.963732
Au   12.464467   12.846163   13.051349
Au   14.933918   11.500611   13.028893
Au   12.012482   14.793335   11.221163
Au   14.145558   13.187582   15.215404
Au   16.795553   13.898599   19.683367
Au   15.264227   12.519924   17.718349
Au   12.761031   13.685284   17.670092
Au   19.165683   15.092358   18.861303
Au   12.395143   17.368571   12.072945
Au   11.214243   15.588641   13.725078
Au   11.729689   17.984088   14.894724
Au   13.906089   15.156642   13.181440
Au   12.817240   19.831861   13.062984
Au   13.261457   15.826576   15.874630
Au   14.650292   17.846848   19.481755
Au   15.176774   15.325464   18.048206
Au   15.216657   17.867514   16.759916
Au   15.020199   15.634168   20.933868
Au   17.180875   16.672518   19.690943
Au   13.560879   19.940880   15.655420
Au   14.465168   20.146775   18.160924
Au   17.031096   19.093472   18.462885
Au   16.291274   20.457782   16.156310
Au   17.736296   11.198623   13.069824
Au   14.344393   16.101727   10.521933
Au   14.371307   13.382686   11.096097
Au   16.420064   13.712246   13.194668
Au   18.805142   13.757914   12.003255
Au   16.731734   12.124399   10.877895
Au   16.473360   11.810904   15.345542
Au   17.515770   13.833636   16.983999
Au   18.832661   13.047105   14.642161
Au   16.713744   17.415886   9.953153
Au   16.810997   14.764906   10.450434
Au   14.341602   17.787630   14.075109
Au   14.762943   18.685342   11.423577
Au   16.307722   16.506914   12.539013
Au   18.802015   16.517614   11.531929
Au   15.949399   15.463047   15.261302
Au   17.825076   16.622659   16.934128
Au   20.027635   14.725975   16.373785
Au   17.099932   18.164064   14.676847
Au   19.518664   17.809808   18.584508
Au   17.488299   19.019390   11.985753
Au   15.495230   20.287533   13.544034
Au   18.172327   20.607782   14.098507
Au   18.848211   19.432533   16.452295
Au   18.602148   15.746271   14.188294
Au   19.580338   18.293669   13.568034
Au   20.336311   17.299613   15.956353
