55
Generated with con2xyz
Au   14.200210   14.553412   13.726269
Au   16.901985   14.691501   13.026485
Au   16.596215   15.016810   15.907451
Au   11.716550   13.488962   12.787345
Au   11.925916   14.443126   15.442527
Au   12.711362   16.980213   14.002845
Au   15.688000   17.041242   14.169934
Au   13.582023   11.892550   14.280064
Au   16.319536   12.481028   14.786083
Au   14.333519   13.389239   16.591685
Au   14.100885   16.207710   16.319814
Au   15.404135   12.352190   12.114781
Au   14.814087   16.248285   11.584165
Au   19.427010   14.921269   12.234582
Au   19.174265   15.214299   14.966034
Au   18.663447   15.495259   17.707205
Au   12.870355   11.341385   11.569817
Au   9.441572   15.389964   16.198295
Au   9.497727   13.014553   17.270984
Au   11.769706   19.733152   13.931072
Au   14.419484   19.498090   14.068940
Au   17.911007   17.489885   16.049804
Au   12.857499   9.388764   14.856106
Au   15.585769   9.830002   15.258324
Au   18.196628   10.576752   15.563716
Au   14.302313   12.416930   19.108530
Au   14.009240   15.134478   18.886423
Au   13.782839   17.808402   18.552459
Au   14.625382   9.754440   12.781572
Au   16.212599   14.247584   10.278025
Au   13.224471   18.519896   11.831881
Au   16.497934   13.946324   18.489340
Au   16.244941   16.678583   18.188435
Au   18.066848   12.697468   11.415888
Au   17.516130   16.464067   10.938939
Au   11.971180   13.554394   18.075608
Au   11.657325   16.357939   17.481074
Au   13.580236   13.878191   10.808050
Au   12.051078   15.981000   11.520761
Au   18.347617   17.260698   13.324311
Au   17.104556   19.458852   14.373639
Au   10.550068   18.005779   12.420370
Au   10.390853   17.742444   15.254179
Au   18.954947   12.694518   13.921878
Au   18.464605   13.040942   16.638576
Au   9.642099   13.081103   14.602999
Au   11.454869   11.643418   16.089188
Au   12.730810   18.709125   16.253523
Au   15.476697   18.710590   16.506136
Au   16.331581   11.440226   17.424689
Au   13.748876   10.682236   17.091047
Au   10.141919   15.604968   13.559254
Au   16.117075   18.615814   11.997559
Au   11.065749   10.915438   13.516208
Au   17.271908   10.569120   13.045281
