55
Generated with con2xyz
Au   14.180681   12.755527   14.388597
Au   17.658981   15.627668   11.076496
Au   13.470319   18.928729   17.753991
Au   12.692856   16.319036   18.562222
Au   14.423722   21.476703   16.904932
Au   15.890576   14.643644   15.396365
Au   15.864696   14.154877   12.625820
Au   17.747598   18.740117   14.499179
Au   17.580322   18.277148   11.712659
Au   17.870987   13.111038   14.075721
Au   13.278221   14.551369   16.416816
Au   14.855426   15.256981   20.060711
Au   15.354289   17.301266   14.724927
Au   16.275201   19.398296   21.488636
Au   21.856713   15.735303   13.387508
Au   16.215281   11.908187   15.897277
Au   15.337431   16.737966   12.007027
Au   16.140005   21.205688   14.771671
Au   19.878775   17.069273   12.247474
Au   12.812972   17.154889   15.807365
Au   17.134115   21.631462   17.327345
Au   16.019032   19.175785   16.694426
Au   13.129530   17.899884   13.133188
Au   13.013792   13.650274   18.920250
Au   15.414965   19.422705   12.847933
Au   13.754103   19.666817   15.058275
Au   17.461319   15.339463   19.020727
Au   19.636154   14.369118   12.351672
Au   17.785564   15.949503   13.753066
Au   17.726859   16.590860   16.573375
Au   13.724663   11.945730   16.917777
Au   18.092909   13.706902   16.789137
Au   15.140597   16.512072   17.552356
Au   14.466051   17.905837   20.080594
Au   15.560735   13.608124   17.986402
Au   20.138008   14.335077   14.981813
Au   17.900964   20.765773   12.708401
Au   21.460030   17.824218   17.449831
Au   20.028521   17.140148   15.135732
Au   18.903011   19.128386   17.167668
Au   19.568500   17.101376   19.384008
Au   18.882569   21.234988   15.212118
Au   17.046189   18.154401   19.057620
Au   15.345412   20.429558   19.180594
Au   16.800160   16.749126   21.316994
Au   20.552890   19.609251   19.348696
Au   20.237018   19.460368   13.543737
Au   18.081262   20.672808   19.694156
Au   13.614615   15.327929   13.747633
Au   19.825927   21.651364   17.768523
Au   20.126698   15.355779   17.481920
Au   21.231525   20.089387   16.018191
Au   18.803809   18.671743   21.361525
Au   22.453002   18.104668   14.652610
Au   22.360466   15.742664   15.980025
