55
Generated with con2xyz
Au   13.256950   14.889318   17.671949
Au   13.610846   18.534845   13.847946
Au   12.028199   18.193640   16.000811
Au   12.659495   16.947054   19.711696
Au   12.449750   19.439906   18.395008
Au   15.315300   13.392185   18.659757
Au   13.559590   16.050927   15.157681
Au   16.107245   15.492062   13.990553
Au   16.031325   17.993408   12.548073
Au   14.762733   13.620338   12.590002
Au   13.600597   14.541864   20.322014
Au   16.259874   14.548054   20.917052
Au   15.839178   15.385392   16.839538
Au   16.789671   18.188201   21.571856
Au   18.519976   17.249302   11.475470
Au   13.939007   16.210024   12.446319
Au   14.006404   20.027494   16.188778
Au   15.802704   17.935863   15.369884
Au   15.773786   20.366179   14.025511
Au   14.119330   17.507743   17.545436
Au   14.516220   18.931676   20.126672
Au   16.164197   16.737100   19.316260
Au   16.275878   19.304459   17.892945
Au   14.607522   16.622490   21.623381
Au   16.196229   21.733431   16.408279
Au   14.520283   21.267044   18.645923
Au   20.302016   14.060920   17.235521
Au   16.327167   15.570421   11.243714
Au   17.056306   13.058352   11.387700
Au   18.315428   14.844866   15.624059
Au   14.651026   13.478927   15.372750
Au   17.000801   12.801754   14.021703
Au   17.933282   14.587943   18.568910
Au   18.433510   16.135320   20.789890
Au   16.996659   12.679351   16.725081
Au   18.621550   14.769512   12.782064
Au   18.196357   19.727477   12.817045
Au   20.590899   18.977444   11.850990
Au   18.329582   17.270717   14.200416
Au   18.027439   19.692657   15.663496
Au   20.758560   14.416249   14.576828
Au   20.206793   21.339158   15.933906
Au   17.994373   17.195649   17.105069
Au   18.533934   18.536619   19.511148
Au   20.058845   16.373985   18.615343
Au   18.563788   20.964697   18.159573
Au   18.030143   22.084473   14.314568
Au   16.728886   20.597654   20.269065
Au   18.422019   23.228532   16.719726
Au   16.722748   22.843125   18.792052
Au   19.346265   12.344551   15.409986
Au   20.375883   21.268738   13.247239
Au   20.171979   18.864935   17.292532
Au   20.528875   18.925343   14.554985
Au   20.701433   16.585646   13.016010
