55
Generated with con2xyz
Au   16.277197   17.818652   10.450136
Au   16.019769   16.424342   12.835962
Au   16.409375   16.136592   16.251394
Au   16.748866   15.689129   18.970626
Au   18.594770   16.829337   9.312499
Au   18.617913   16.389322   14.495371
Au   18.993068   15.900623   17.350438
Au   15.706312   20.508381   10.490887
Au   15.378334   19.165524   12.942146
Au   17.480113   18.134333   17.999739
Au   13.708235   18.736747   10.648795
Au   14.440615   17.905377   15.358150
Au   14.796474   17.417131   18.189047
Au   14.094135   16.043327   10.677445
Au   14.207778   15.135344   14.618939
Au   17.268255   13.675992   17.233000
Au   18.856267   14.033427   9.408446
Au   16.881679   14.179108   14.271857
Au   19.871498   13.532409   16.500214
Au   20.682146   18.182224   13.772376
Au   18.135142   20.554446   16.968011
Au   18.137265   18.407139   12.563801
Au   19.694988   18.325468   16.299440
Au   14.767393   21.753003   12.745317
Au   16.435930   21.284405   14.881571
Au   17.492292   21.123839   12.362813
Au   15.498522   19.909481   17.151025
Au   13.183856   17.243597   12.928205
Au   12.882208   19.150794   17.291604
Au   11.465785   15.743286   14.545773
Au   14.566375   14.660347   17.640774
Au   12.486135   14.618413   12.369896
Au   15.138909   12.658799   15.867062
Au   16.543471   15.076155   10.149616
Au   18.013091   11.964002   15.274644
Au   20.971156   15.548705   9.932052
Au   16.011938   11.683083   13.488380
Au   18.705844   15.653222   11.776949
Au   19.628297   13.816442   13.884714
Au   21.016242   15.827639   15.453444
Au   20.104855   20.365858   12.003399
Au   17.127615   18.653696   15.208366
Au   19.148251   20.411601   14.490502
Au   18.332673   19.581011   10.111915
Au   12.678339   19.973113   12.765831
Au   13.781599   20.586921   15.097112
Au   11.793210   18.478248   14.945120
Au   12.607613   16.432557   16.837669
Au   12.496455   13.732485   16.121582
Au   13.387439   12.557216   13.845747
Au   15.077754   13.844219   12.113682
Au   20.494112   13.389905   11.395953
Au   17.771102   13.059749   11.828784
Au   21.268397   15.734586   12.706013
Au   20.430707   17.901706   11.034073
