55
Generated with con2xyz
Au   14.264932   14.688127   14.121465
Au   16.890998   14.766612   13.090563
Au   16.806390   14.883834   15.926572
Au   11.603731   13.938152   13.286978
Au   12.134613   14.802921   15.902806
Au   12.915915   17.231047   14.464710
Au   15.901399   17.078918   14.396771
Au   13.434094   12.028543   14.339968
Au   16.208901   12.484820   14.599911
Au   14.475654   13.361473   16.697768
Au   14.478205   16.256039   16.659261
Au   14.944873   12.848502   12.042721
Au   14.683136   16.313288   11.944498
Au   19.325438   14.895835   11.886548
Au   19.301902   15.012370   14.658590
Au   19.091360   15.102881   17.436244
Au   12.346312   11.882234   11.665857
Au   9.707629   13.521200   15.329001
Au   9.909677   15.531033   17.144236
Au   12.150408   19.974348   14.730337
Au   14.741079   19.549292   14.391072
Au   18.316857   17.265970   15.954842
Au   12.584608   9.537985   14.866233
Au   15.358320   9.863716   14.922729
Au   18.007892   10.435444   14.927299
Au   14.634851   12.252485   19.103672
Au   14.606250   14.999983   19.124028
Au   14.587357   17.733457   18.973048
Au   14.214646   10.095954   12.493437
Au   13.093565   17.064103   10.008470
Au   13.239322   18.702255   12.209897
Au   16.905421   13.640212   18.379364
Au   16.864731   16.444185   18.255678
Au   17.485425   13.115789   11.052484
Au   17.235640   16.309366   10.906695
Au   12.331288   13.738029   18.442102
Au   12.227881   16.501821   18.195458
Au   13.030169   14.431649   10.887347
Au   11.652575   16.407940   12.081665
Au   18.428787   17.196266   13.138870
Au   17.440312   19.375936   14.448654
Au   10.081669   16.015586   14.402468
Au   10.859538   17.900515   16.169712
Au   18.773188   12.614385   13.392260
Au   18.595671   12.754747   16.200358
Au   10.735089   11.380418   13.923649
Au   11.629628   12.032952   16.444322
Au   13.335040   18.812220   16.838445
Au   16.063362   18.641612   16.750038
Au   13.824597   10.641606   17.051093
Au   16.450412   11.262074   17.119592
Au   10.567917   18.462593   13.385043
Au   16.176652   18.590166   12.144609
Au   11.655074   9.417855   12.402385
Au   16.836871   10.856977   12.498072
