55
Generated with con2xyz
Au   14.549203   15.218006   14.274725
Au   17.145055   15.001715   13.020701
Au   16.787571   15.412864   15.912759
Au   12.005655   14.498898   13.144544
Au   12.285876   14.651813   16.056806
Au   12.646898   17.157031   14.703208
Au   15.661192   17.832617   14.891194
Au   13.409346   12.476196   14.668467
Au   16.203864   12.822484   14.590208
Au   14.764946   13.625443   16.886861
Au   14.320587   16.401678   16.946563
Au   14.583449   13.333369   12.241355
Au   14.770610   16.052183   11.570473
Au   19.420786   14.199897   11.400693
Au   19.649892   14.846558   14.149302
Au   19.231116   15.755588   16.734421
Au   12.211977   12.274838   11.252736
Au   9.891690   14.202989   14.915455
Au   10.091226   14.168328   17.677190
Au   10.663971   19.019614   15.451552
Au   13.463422   19.653233   15.190393
Au   18.426165   17.228721   14.474666
Au   12.317515   9.990445   15.022560
Au   15.094218   10.207072   15.003471
Au   17.796116   10.570620   14.940878
Au   15.049832   12.243441   19.238055
Au   14.525490   14.875256   19.404430
Au   14.081778   17.578299   19.421619
Au   14.733898   11.476602   10.357328
Au   15.114374   14.095016   9.599905
Au   14.196984   18.542826   12.726194
Au   17.104565   13.923323   18.285155
Au   16.508223   16.547816   18.653774
Au   17.081967   12.920043   10.970967
Au   17.274595   15.650575   10.396428
Au   12.509076   13.165759   18.528951
Au   12.049557   15.895163   18.602168
Au   12.670607   14.725560   10.433381
Au   12.129391   16.934106   11.872327
Au   19.254913   16.720028   11.985974
Au   17.652340   18.050226   16.858751
Au   10.180981   16.736668   13.774250
Au   10.343914   16.572647   16.481451
Au   18.618649   12.460211   13.264154
Au   18.522510   13.161033   16.029877
Au   10.961634   11.942989   13.618886
Au   11.144688   12.071346   16.339199
Au   12.410441   18.367134   17.383949
Au   15.132320   18.972216   17.349056
Au   13.658767   11.060297   17.172868
Au   16.508643   11.466435   17.104446
Au   11.647730   19.261012   13.076471
Au   16.785373   17.708594   12.305880
Au   13.591819   10.521786   12.685673
Au   16.302178   10.889469   12.601743
