55
Generated with con2xyz
Au   13.526932   13.318744   14.732403
Au   16.457665   16.326729   11.164993
Au   13.088966   18.809270   19.631742
Au   13.182253   16.062004   19.635023
Au   13.056367   20.214163   17.290493
Au   15.626171   14.773133   15.657741
Au   14.972666   14.802240   12.931849
Au   16.994084   19.111099   13.838136
Au   16.309502   19.059997   11.188525
Au   17.288342   13.520417   13.776914
Au   13.193806   14.706445   17.136366
Au   15.547887   14.763173   20.499943
Au   15.420643   17.614176   15.655693
Au   17.525695   19.027777   21.335790
Au   20.924569   16.505512   12.807092
Au   15.808534   12.064050   15.571457
Au   14.707952   17.589732   12.883885
Au   16.854861   21.842843   13.873578
Au   18.669943   17.814507   11.854569
Au   13.047573   17.481098   17.207163
Au   15.211323   21.691501   18.173552
Au   15.344914   18.964699   18.118575
Au   13.175381   18.925128   14.819526
Au   13.471625   13.385495   19.461565
Au   14.709561   20.340323   12.991608
Au   15.260019   20.530470   15.680754
Au   17.921109   14.808355   18.984778
Au   18.739334   15.048555   11.993710
Au   17.152405   16.298220   13.795242
Au   17.890751   16.277719   16.542265
Au   13.599896   12.046301   17.096597
Au   18.035025   13.486324   16.462119
Au   15.458236   16.112338   18.129517
Au   15.317360   17.526254   20.646152
Au   15.776614   13.286988   18.082909
Au   19.545877   14.934035   14.642921
Au   18.431517   20.572407   12.056616
Au   20.162812   17.850457   17.460758
Au   19.395985   17.831106   14.674954
Au   17.716200   19.167647   16.563037
Au   19.972906   16.429195   19.807997
Au   19.220691   20.739477   14.722893
Au   17.691617   17.677233   18.972884
Au   15.240766   20.278271   20.507505
Au   17.695311   16.283872   21.309561
Au   19.849713   20.617417   17.454570
Au   20.761268   19.361038   12.842899
Au   17.573104   20.591922   19.050861
Au   13.272952   16.093978   14.726037
Au   17.492211   21.896368   16.583483
Au   20.182865   15.068829   17.392432
Au   21.488561   19.383608   15.566959
Au   19.801705   19.183501   19.835037
Au   22.868113   18.040491   13.751595
Au   21.653381   16.511266   15.532497
