55
Generated with con2xyz
Au   13.864023   12.948937   12.054200
Au   16.221501   11.537595   11.854104
Au   16.757358   12.873995   9.533485
Au   15.582851   12.796077   14.194494
Au   14.429953   14.307692   9.744182
Au   13.708336   15.713344   12.002102
Au   16.225875   14.271878   11.806894
Au   16.801146   15.632852   9.301479
Au   13.238295   14.333126   14.359371
Au   12.883814   15.773143   16.620420
Au   15.052420   14.200290   16.540395
Au   15.594303   15.710175   14.199567
Au   14.677413   15.771255   18.679243
Au   13.943950   18.469235   11.993435
Au   16.267058   17.069894   11.772442
Au   16.340547   19.802334   11.751594
Au   13.279758   17.158130   14.331246
Au   15.094956   17.285466   16.506315
Au   15.668461   18.620542   14.125835
Au   16.840806   18.395727   9.464609
Au   18.667997   12.750452   11.532035
Au   18.037370   11.471042   13.941460
Au   17.449478   12.792787   16.336662
Au   19.858776   11.535351   16.029123
Au   20.511454   12.740500   13.647234
Au   19.331630   12.944594   18.337474
Au   19.162845   14.168435   9.192564
Au   18.714996   15.629946   11.469777
Au   21.107479   14.167082   11.294634
Au   21.407050   15.558474   9.050552
Au   18.050463   14.204490   13.923624
Au   17.447790   15.707498   16.324316
Au   19.898709   14.264940   16.033184
Au   20.529520   15.628264   13.624483
Au   16.964424   14.330786   18.635372
Au   19.366409   15.709957   18.498707
Au   19.205869   17.021527   9.157235
Au   14.470550   17.045741   9.713242
Au   18.751571   18.511475   11.460313
Au   18.094930   17.131248   13.887204
Au   17.532356   18.617461   16.263358
Au   19.941318   17.070974   15.998313
Au   20.595183   18.515270   13.573249
Au   17.000649   17.154074   18.601313
Au   19.406267   18.468950   18.267873
Au   18.158127   19.865286   13.837037
Au   19.978256   19.798870   15.923985
Au   22.234608   12.880205   15.795276
Au   21.148740   17.017313   11.257186
Au   22.839231   14.212436   13.484807
Au   22.469929   15.630957   15.806513
Au   21.697797   14.304259   18.089246
Au   22.880105   16.969163   13.444505
Au   22.317058   18.384265   15.718451
Au   21.736585   17.048558   18.053158
