55
Generated with con2xyz
Au   9.929477   14.041302   15.900055
Au   10.024515   15.933691   13.930615
Au   10.004320   15.964096   17.850233
Au   10.061117   17.871402   15.885498
Au   13.648816   10.142988   15.973390
Au   11.803142   13.843528   13.868587
Au   13.764913   11.806710   13.903534
Au   13.789323   13.770683   11.885490
Au   11.737248   11.969031   15.920682
Au   11.763858   13.852121   17.966557
Au   13.746081   11.900325   17.947719
Au   13.816886   13.755922   15.927950
Au   13.815403   13.914044   19.822130
Au   13.957415   15.799209   10.035270
Au   11.945507   15.869167   11.937240
Au   11.906566   17.913644   13.847823
Au   13.861482   15.836448   13.886913
Au   13.925141   17.845353   11.850087
Au   11.921892   15.891948   15.900229
Au   11.905358   17.953239   17.949303
Au   13.890804   15.831200   17.889954
Au   13.962250   17.899560   15.911647
Au   11.933860   15.905997   19.795985
Au   13.946725   17.761111   19.807236
Au   13.947065   19.814855   13.818294
Au   12.018649   19.820912   15.902609
Au   14.004973   19.764277   17.909735
Au   14.113801   21.531560   15.867945
Au   17.719016   11.797233   13.932989
Au   15.841615   13.808745   10.048003
Au   15.781732   11.865301   11.973548
Au   15.814919   13.729698   13.943673
Au   19.707440   13.675114   13.962111
Au   17.886535   13.625318   11.890274
Au   15.771488   11.739094   15.930336
Au   15.853667   13.711257   17.963946
Au   17.847057   13.633535   15.992319
Au   15.978397   17.671269   10.028523
Au   17.857606   15.680081   10.058090
Au   15.896145   15.757644   11.955460
Au   15.966307   17.824058   13.929546
Au   17.868557   15.690396   13.951897
Au   18.027533   17.730612   11.890816
Au   15.919909   15.768853   15.968388
Au   16.002345   17.786051   17.986551
Au   17.844255   15.677410   17.906732
Au   18.018327   17.708942   15.992486
Au   15.834911   15.752997   19.807003
Au   16.052399   19.678203   11.921491
Au   16.059494   21.461970   13.951767
Au   18.034129   19.612562   13.930638
Au   16.113011   19.748134   16.011400
Au   19.786833   15.615414   12.011754
Au   19.859288   17.542191   13.958956
Au   19.764089   15.601732   15.911878
