55
Generated with con2xyz
Au   13.242336   15.380893   16.355616
Au   14.508481   18.498613   11.968238
Au   12.999694   19.434403   18.855219
Au   14.698149   18.270449   20.863231
Au   12.098723   20.581577   16.452106
Au   14.144650   14.147696   18.611034
Au   13.895763   16.970194   14.140916
Au   16.528003   15.637633   14.023040
Au   16.904168   17.268233   11.623354
Au   14.011110   14.258424   13.984155
Au   14.030247   16.879226   18.612144
Au   17.351967   14.112743   20.704426
Au   15.660683   17.002923   16.368882
Au   19.145603   18.623450   20.064783
Au   19.168618   16.016926   12.502372
Au   14.735420   15.723185   11.848414
Au   13.780350   19.781544   14.329046
Au   16.284154   18.490837   14.077927
Au   18.860619   18.911351   12.568215
Au   12.791524   18.030338   16.415510
Au   15.260311   20.766536   19.623354
Au   16.476232   18.377542   18.803716
Au   14.838108   19.834491   16.874661
Au   14.972993   15.475819   20.781532
Au   16.243709   21.221579   14.690642
Au   13.477858   22.075930   18.156195
Au   18.916865   13.466997   18.469941
Au   17.106110   14.406938   11.723833
Au   16.250760   12.842133   13.822245
Au   18.265832   14.938328   16.210255
Au   15.598553   14.048163   16.252475
Au   17.681423   12.262419   16.137896
Au   16.665790   15.510420   18.538541
Au   17.199923   16.901973   21.072488
Au   16.379337   12.704485   18.559648
Au   18.783423   13.621580   13.820132
Au   16.560540   20.246640   12.068619
Au   21.247600   17.651544   16.203131
Au   18.740088   17.338662   14.864172
Au   17.582335   19.412200   16.407587
Au   20.817894   15.237382   17.535465
Au   18.637661   21.829328   16.205805
Au   18.829902   17.247612   17.679967
Au   17.002217   19.628474   21.292720
Au   19.401655   15.762901   19.910456
Au   20.118012   19.747064   17.674780
Au   18.569484   21.451516   13.458068
Au   17.909138   20.813451   18.842016
Au   13.944580   22.264863   15.553039
Au   16.131796   22.198321   17.296500
Au   20.250527   12.997686   16.084607
Au   20.071642   19.823090   14.939780
Au   21.305731   17.534046   18.910407
Au   21.114352   17.708832   13.475100
Au   20.732206   15.333033   14.748416
