55
Generated with con2xyz
Au   13.717173   15.880424   11.387712
Au   16.333139   11.995948   12.815404
Au   17.618154   13.750906   9.332309
Au   17.496622   11.742970   15.342290
Au   17.803757   11.308317   10.586724
Au   12.325346   16.708778   13.599516
Au   18.869544   10.938974   13.076665
Au   17.457404   16.342991   8.423199
Au   13.890619   13.330304   12.485574
Au   12.497305   14.200820   14.681247
Au   14.942064   12.909589   15.035647
Au   14.750995   15.546743   13.979694
Au   14.229771   15.010409   16.724071
Au   14.578110   18.133465   12.786378
Au   16.189497   14.664342   11.694628
Au   15.182125   15.029142   9.200305
Au   11.931248   16.320605   16.225921
Au   13.662806   17.255141   18.099240
Au   14.040545   17.832616   15.502334
Au   15.967978   17.316781   10.530006
Au   21.164711   12.278079   12.302144
Au   19.231805   12.697249   17.309129
Au   16.725409   13.829743   17.053988
Au   20.909699   13.799013   19.034056
Au   19.881488   12.978443   14.627370
Au   18.504161   14.898690   18.918094
Au   20.094306   12.639405   9.815186
Au   18.715832   13.441039   12.022434
Au   21.159641   14.795830   11.185754
Au   19.922101   15.146626   8.734198
Au   17.282707   14.263526   14.321625
Au   16.528100   16.506870   15.954802
Au   19.103443   15.247402   16.260223
Au   19.676001   15.663511   13.490156
Au   16.041315   16.098428   18.605252
Au   18.360899   17.501876   17.931486
Au   18.345165   18.515528   9.820245
Au   15.355548   12.500720   10.285305
Au   18.540205   16.027475   10.909874
Au   17.083526   16.957216   13.148981
Au   16.357911   19.172453   14.753878
Au   18.895948   17.834834   15.112558
Au   19.506370   18.358467   12.312641
Au   15.880889   18.676720   17.485231
Au   18.179943   19.952362   16.676031
Au   16.977308   19.451719   12.044513
Au   18.718554   20.346933   14.031883
Au   21.600736   14.093102   16.498102
Au   20.816302   17.313712   10.132589
Au   22.096602   14.439039   13.778682
Au   21.523346   16.644158   15.420937
Au   20.857063   16.283903   18.110570
Au   21.906786   17.030128   12.681907
Au   21.179589   19.142051   14.342717
Au   20.634219   18.772369   16.981187
