55
Generated with con2xyz
Au   15.098824   16.886445   10.522276
Au   14.975575   16.226885   13.366727
Au   16.375610   16.341469   16.256338
Au   17.355501   16.315718   18.861706
Au   17.047957   15.538793   9.042490
Au   18.200708   16.385960   14.148373
Au   19.173909   16.362237   16.842405
Au   14.655435   19.564965   9.832329
Au   14.630378   18.877874   12.550678
Au   17.522030   18.597864   17.410301
Au   12.608073   18.106557   10.680586
Au   14.000745   17.821453   15.445665
Au   14.937992   17.553414   18.226972
Au   12.937427   15.465123   11.368152
Au   14.010334   14.909421   15.757945
Au   17.725220   14.054512   17.252241
Au   16.882038   12.906916   8.741060
Au   16.596928   14.111172   14.567783
Au   18.013001   11.894550   15.542217
Au   20.078580   17.874016   12.681099
Au   17.730358   20.806556   15.846550
Au   17.255731   17.915963   12.026896
Au   19.384314   18.646642   15.330547
Au   14.215665   21.426382   11.820265
Au   16.168578   21.313625   13.702477
Au   16.759472   20.522608   11.145480
Au   15.227070   19.899771   16.777395
Au   12.288974   17.341945   13.262187
Au   12.508802   18.491424   17.549782
Au   11.490597   16.581635   15.792604
Au   15.263675   14.724638   18.317967
Au   12.105775   14.614895   13.794826
Au   15.562009   12.474734   16.561813
Au   14.917082   14.140234   10.044292
Au   15.879440   11.571216   13.926306
Au   18.792231   13.741851   10.353220
Au   13.328619   12.402337   15.014799
Au   16.974776   15.026154   11.841682
Au   19.507258   14.124889   15.147916
Au   20.921656   16.397238   14.752818
Au   19.183081   19.369718   10.624445
Au   16.567353   18.693269   14.655331
Au   18.583088   20.158579   13.215492
Au   17.090364   18.337488   9.312816
Au   12.061262   19.989307   12.548771
Au   13.760247   20.575300   14.584619
Au   11.532475   19.215279   15.140952
Au   12.756021   15.786385   18.036448
Au   13.246954   13.024098   17.788772
Au   11.362582   13.948551   16.273846
Au   14.462371   13.576528   12.750620
Au   18.456361   12.770425   12.988436
Au   16.463251   12.284054   11.286917
Au   19.941209   15.041874   12.514648
Au   19.082617   16.593746   10.427731
