55
Generated with con2xyz
Au   14.744786   15.326311   14.425772
Au   17.214176   14.981380   13.109804
Au   16.905363   15.459534   16.132682
Au   12.378530   14.676816   13.125596
Au   12.299740   14.744659   16.077554
Au   12.675687   17.162536   14.725153
Au   15.769812   17.907342   15.028001
Au   13.493226   12.568592   14.752887
Au   16.297042   12.871519   14.772546
Au   14.762797   13.704971   16.986542
Au   14.316586   16.481183   17.023049
Au   14.852297   13.339079   12.399799
Au   14.486481   16.090143   11.700124
Au   19.369228   14.235258   11.390452
Au   19.746496   14.847238   14.113790
Au   19.469740   15.803432   16.625009
Au   12.516872   12.664853   11.072265
Au   10.012470   14.331654   14.654842
Au   10.044693   14.301042   17.508667
Au   10.980447   19.133435   15.243738
Au   13.669313   19.642429   15.380122
Au   18.449037   17.216512   14.493411
Au   12.321254   10.107097   14.975363
Au   15.111195   10.281553   15.045353
Au   17.843421   10.643082   15.068467
Au   14.936048   12.269936   19.300233
Au   14.445527   14.908998   19.479367
Au   14.020704   17.607188   19.521008
Au   14.871187   11.437778   10.393378
Au   14.742798   14.085821   9.801200
Au   14.131848   18.574511   12.902392
Au   17.048861   13.906003   18.438736
Au   16.460215   16.582650   18.769553
Au   17.105906   12.912755   10.879445
Au   17.005927   15.612961   10.500290
Au   12.413276   13.228447   18.484257
Au   12.000543   15.955442   18.624345
Au   12.269991   15.191009   10.314201
Au   10.082445   15.076867   11.935700
Au   19.111615   16.751503   11.937412
Au   17.791002   17.986574   16.971559
Au   10.007164   16.943278   13.857275
Au   10.416710   16.787021   16.506262
Au   18.627787   12.488929   13.294273
Au   18.607593   13.230376   16.132055
Au   11.166724   12.135061   13.407834
Au   11.112053   12.194816   16.198384
Au   12.426474   18.464174   17.447195
Au   15.278245   18.958939   17.548168
Au   13.610998   11.125633   17.183710
Au   16.486427   11.503295   17.215791
Au   11.919385   17.229895   12.004043
Au   16.629219   17.640669   12.394643
Au   13.591554   10.719546   12.678352
Au   16.377364   10.942976   12.693916
