55
Generated with con2xyz
Au   16.539669   17.915763   10.501281
Au   15.999759   16.643678   12.934097
Au   16.211024   16.051304   15.970827
Au   16.452757   15.403474   18.581496
Au   18.768553   16.672751   9.393534
Au   18.626843   16.297065   14.502891
Au   18.807454   15.571134   17.185575
Au   16.309753   20.689608   10.492402
Au   15.674544   19.420536   12.913592
Au   17.435287   17.879028   17.918818
Au   14.099661   19.217596   10.524239
Au   14.500322   18.185125   15.238444
Au   14.727331   17.538376   17.991694
Au   14.135465   16.506918   10.509993
Au   13.893529   15.538210   14.383907
Au   17.145981   13.513603   16.646622
Au   18.706923   13.891824   9.469142
Au   16.777371   14.089297   13.947554
Au   18.093733   11.678365   13.590944
Au   20.881896   17.969414   13.947451
Au   18.366262   20.357191   17.102505
Au   18.348537   18.375429   12.646167
Au   19.765673   18.095207   16.452441
Au   15.394632   22.054688   12.728367
Au   16.876937   21.333041   14.939734
Au   18.031710   21.151211   12.451622
Au   15.704988   19.998543   17.141142
Au   13.253078   17.787088   12.731179
Au   13.035669   19.568551   17.162555
Au   11.262459   16.504655   14.214815
Au   14.041329   14.979328   17.404256
Au   12.240679   15.280653   12.068483
Au   16.453413   11.195250   15.558860
Au   16.416398   15.210877   9.893782
Au   15.306937   11.838252   13.228294
Au   20.860375   15.036478   10.369769
Au   14.584329   13.097456   15.571659
Au   18.374226   15.513610   11.813682
Au   19.401367   13.724884   14.855281
Au   21.058951   15.797706   15.711189
Au   20.531730   20.076526   12.158005
Au   17.252029   18.621962   15.230901
Au   19.463846   20.239807   14.638734
Au   18.779557   19.455506   10.190941
Au   13.113107   20.554856   12.613758
Au   14.168686   20.937993   15.022373
Au   11.966265   19.146642   14.739139
Au   12.373214   16.978288   16.582487
Au   11.949379   14.340649   15.767607
Au   12.816659   13.095374   13.524667
Au   14.762743   14.258888   11.962417
Au   19.733681   13.135962   12.013158
Au   17.079179   12.907292   11.370860
Au   20.910003   15.355565   13.066332
Au   20.574118   17.539970   11.229724
