55
Generated with con2xyz
Au   16.709660   18.101375   8.544010
Au   16.269532   16.329511   13.834096
Au   16.395412   16.313574   16.715818
Au   16.085757   16.321975   19.362015
Au   16.483616   17.208992   11.142476
Au   18.772839   16.351382   15.020231
Au   18.762156   14.625605   17.091738
Au   15.938255   19.946755   10.410550
Au   15.749457   19.110689   13.096399
Au   16.945624   18.628921   18.232668
Au   14.234262   17.941317   9.772018
Au   14.502115   17.975362   15.348449
Au   14.313526   18.014120   18.129414
Au   13.503604   15.442971   10.118475
Au   14.024608   15.178806   15.001307
Au   19.494359   13.677187   14.578949
Au   17.733398   13.847697   10.161073
Au   17.452452   12.876854   12.822131
Au   16.364716   13.920325   18.070179
Au   20.801089   18.086892   14.206596
Au   17.915522   20.829088   16.955133
Au   18.395763   18.212923   12.945812
Au   21.085043   15.701708   16.116211
Au   15.159149   21.685652   12.315430
Au   16.583538   21.330397   14.643821
Au   17.831641   20.890683   12.224756
Au   15.257007   20.281808   16.821391
Au   13.848731   16.905591   12.483537
Au   12.610386   19.598973   16.578232
Au   11.493117   15.668017   14.269606
Au   14.034558   15.294408   17.905920
Au   12.912966   14.289471   12.436764
Au   16.772125   13.938583   15.315711
Au   18.615811   16.352418   9.582219
Au   14.859219   12.797412   13.730125
Au   20.442281   14.546982   10.720606
Au   12.316640   12.865302   14.589330
Au   18.479012   15.384545   12.353206
Au   21.384251   12.909009   12.684940
Au   22.136278   13.585489   15.085507
Au   20.417707   19.891043   12.195119
Au   17.244332   18.694524   15.496600
Au   19.223475   20.371378   14.583123
Au   18.593418   19.037297   10.285644
Au   13.413022   19.580550   11.839478
Au   13.806209   20.611255   14.402080
Au   12.147567   18.380751   14.085958
Au   12.202246   16.958886   16.541728
Au   14.341816   12.940298   16.468714
Au   11.852855   14.304933   16.685954
Au   15.571893   14.608349   11.714936
Au   19.411369   12.110609   11.206376
Au   15.931228   15.581552   9.029968
Au   21.174327   15.521147   13.380116
Au   20.482405   17.274484   11.399110
