55
Generated with con2xyz
Au   14.176862   14.885662   13.742006
Au   16.808542   14.665317   12.849588
Au   16.758556   14.940243   15.687461
Au   11.479437   14.605594   13.161712
Au   12.205800   14.710453   15.923454
Au   12.824098   17.288580   14.571464
Au   15.763057   17.156216   14.158211
Au   13.115206   12.410121   14.459157
Au   16.120858   12.456461   14.460759
Au   14.612540   13.429781   16.689401
Au   14.428824   16.236642   16.624509
Au   14.711159   12.565251   12.065879
Au   15.053630   16.498929   11.498140
Au   19.291231   14.504696   11.896229
Au   19.324482   14.897876   14.644227
Au   18.996732   15.238952   17.274106
Au   11.982154   12.287534   11.774411
Au   9.614861   14.521236   15.146008
Au   10.119677   14.525238   17.800954
Au   10.904534   19.272407   15.396559
Au   13.613481   19.888768   14.970020
Au   17.984050   17.394279   15.799739
Au   11.877240   10.106924   15.060211
Au   18.640522   10.104431   12.388908
Au   17.657912   10.273357   14.885472
Au   14.842089   12.203895   19.175448
Au   14.675647   14.952083   19.153872
Au   14.527762   17.677257   19.008144
Au   13.298944   10.201575   12.770956
Au   15.896921   14.235040   10.235035
Au   14.234844   18.926493   12.528772
Au   16.947078   13.713207   18.289882
Au   16.782278   16.531249   18.097791
Au   17.429767   12.326029   11.401490
Au   17.655437   16.240556   10.666755
Au   12.471504   13.358274   18.520317
Au   12.275636   16.115166   18.476420
Au   13.228139   14.541606   10.953798
Au   12.322167   16.916198   11.885701
Au   18.471677   16.930201   13.150126
Au   16.249534   19.778596   14.224665
Au   10.247299   17.024028   13.776736
Au   10.525500   16.847757   16.465972
Au   18.925102   12.416069   13.619058
Au   18.401172   12.707793   16.240792
Au   10.391890   12.151453   13.900483
Au   10.946274   12.278191   16.491918
Au   12.781810   18.492353   17.156378
Au   15.594292   18.688864   16.599061
Au   13.333770   11.047269   17.184286
Au   16.234733   11.216063   17.065896
Au   11.610415   19.286124   12.908443
Au   16.827829   18.578422   11.875722
Au   14.732642   10.086660   15.061486
Au   16.044414   10.230965   12.657450
