55
Generated with con2xyz
Au   10.870542   11.733053   13.696195
Au   11.721187   9.607650   12.100859
Au   11.348786   12.104151   10.917524
Au   11.391852   9.252612   14.902227
Au   10.596230   11.415622   16.417147
Au   13.091269   10.284118   16.836634
Au   13.560721   10.642021   13.991503
Au   12.314525   12.521253   18.244150
Au   10.603203   14.265299   12.558824
Au   11.074264   14.640524   9.851525
Au   13.121099   13.247104   12.806712
Au   14.180587   13.974153   7.377972
Au   10.216465   13.886265   15.265703
Au   12.286828   15.497905   14.417582
Au   12.725476   12.871021   15.569547
Au   15.396707   14.778694   11.975265
Au   11.929345   14.991644   17.098102
Au   12.758091   15.863400   11.694548
Au   11.707161   14.918019   7.294927
Au   13.311006   16.160598   8.994025
Au   14.557377   16.916395   13.571463
Au   12.335253   9.963180   9.361726
Au   11.939170   12.455567   8.229448
Au   14.574368   8.506192   12.439245
Au   12.797416   7.631016   10.635287
Au   12.344134   7.292510   13.304687
Au   15.329726   11.857405   15.883372
Au   14.011267   8.235789   15.211384
Au   16.283264   9.627642   14.337515
Au   14.855359   11.533104   18.547612
Au   15.720923   9.425750   17.023019
Au   14.944214   8.972658   9.666445
Au   13.623740   13.630598   10.048501
Au   17.094593   10.513598   8.875981
Au   16.715091   12.974197   7.749718
Au   15.848863   12.180204   13.147107
Au   14.939397   14.411817   14.725327
Au   17.631828   13.419838   15.044927
Au   16.240886   12.600141   10.400331
Au   14.482920   14.085836   17.574480
Au   16.629148   15.486864   16.557226
Au   14.522831   11.412592   8.412783
Au   15.911776   15.214370   9.170692
Au   15.024794   17.221416   10.869017
Au   17.113548   15.918292   13.861378
Au   14.079958   16.476989   16.265199
Au   16.746331   10.004730   11.554390
Au   18.392947   11.238196   13.455907
Au   17.872419   10.913085   16.156549
Au   14.021684   11.022891   11.227314
Au   18.387726   14.101546   9.606202
Au   18.777249   11.640341   10.741487
Au   18.087741   13.783735   12.320821
Au   17.013370   13.015439   17.693119
Au   17.555903   16.213603   11.145004
