55
Generated with con2xyz
Au   14.944520   13.485759   12.953625
Au   17.408578   16.127418   10.961717
Au   16.511178   14.682695   15.506247
Au   12.351450   12.106104   11.760913
Au   12.132666   13.002072   14.458631
Au   12.408981   14.828866   12.398841
Au   15.981927   16.197601   13.253459
Au   14.018692   10.975132   13.902228
Au   16.780430   12.035324   14.565309
Au   14.445781   12.847305   16.059777
Au   13.761468   15.321434   14.948565
Au   16.116837   11.059138   11.967157
Au   14.802697   15.205474   10.780885
Au   18.683855   11.777511   12.303260
Au   19.224820   15.270932   15.358782
Au   17.887959   15.857909   17.620098
Au   13.827231   9.913762   11.148631
Au   12.336694   19.330117   14.481119
Au   9.635001   12.688194   15.647269
Au   11.517333   18.770066   11.978721
Au   13.491487   17.269965   12.960350
Au   17.390336   17.407684   15.440358
Au   13.279828   8.563183   14.895365
Au   15.844750   9.523818   15.554757
Au   18.409914   10.532993   16.132143
Au   13.990786   12.335765   18.782388
Au   13.288061   14.840256   17.702615
Au   12.657797   17.337849   16.336198
Au   15.261542   8.654447   13.046232
Au   16.957935   13.427823   10.801103
Au   12.683176   16.900033   10.343710
Au   15.920745   14.106969   18.200736
Au   15.261825   16.619692   17.067817
Au   18.011497   14.275429   13.113946
Au   16.733050   18.806837   13.060190
Au   11.819145   12.531949   17.220945
Au   11.102900   15.021483   16.075322
Au   14.508851   12.488180   10.217651
Au   12.423735   14.212881   9.769040
Au   18.714829   16.926269   13.164714
Au   14.867153   18.444119   15.033708
Au   10.325034   16.351815   11.531722
Au   11.011044   16.962187   14.111786
Au   19.514849   12.570117   14.711752
Au   18.267446   13.169461   17.008186
Au   10.022844   11.741854   13.158084
Au   11.341049   10.510082   15.352131
Au   10.176502   13.652502   11.123469
Au   14.227832   19.809035   12.623491
Au   16.236810   11.383280   17.537364
Au   13.610457   10.374417   16.905914
Au   9.839450   14.510729   13.637623
Au   15.295326   17.901984   10.965661
Au   11.807622   9.617779   12.868339
Au   17.789251   9.627863   13.653704
