55
Generated with con2xyz
Au   8.541717   15.352581   15.937418
Au   10.187451   15.599025   13.879239
Au   10.347171   15.192511   17.872145
Au   10.215947   17.392062   16.112915
Au   12.310854   11.522033   15.394381
Au   12.130573   13.663817   13.550018
Au   14.146449   11.771476   13.254407
Au   14.126395   13.972545   11.545583
Au   10.316654   13.409457   15.652828
Au   12.265311   13.188722   17.635254
Au   14.356301   11.384029   17.323781
Au   14.222585   13.457420   15.548619
Au   14.367690   13.163116   19.421752
Au   14.684119   16.653496   11.094626
Au   12.106339   15.918072   11.876842
Au   11.985640   17.707838   14.000672
Au   14.079111   15.697410   13.747298
Au   12.753822   18.583125   11.503083
Au   12.152014   15.446509   15.812084
Au   12.176506   17.295761   18.067741
Au   14.246556   15.290906   17.719743
Au   14.112376   17.520232   15.995503
Au   12.392173   15.043255   19.691898
Au   14.248216   17.025918   19.842491
Au   12.767395   20.318893   13.657861
Au   12.145937   19.400755   16.205868
Au   14.194512   19.224792   18.135116
Au   14.706810   20.307207   15.613728
Au   16.389509   11.607998   15.360648
Au   16.183420   12.100572   11.364507
Au   16.245836   10.088135   13.140295
Au   16.165504   13.756307   13.517866
Au   18.763881   14.601605   12.858873
Au   18.175669   11.950701   13.234233
Au   14.389140   9.833516   15.108538
Au   16.371663   13.341688   17.531672
Au   18.276216   13.656853   15.436362
Au   17.282325   17.449288   10.618656
Au   16.740744   14.753529   10.956736
Au   14.714525   18.432507   13.382173
Au   15.306696   19.331262   10.874967
Au   16.761294   16.503110   13.107671
Au   19.286535   17.296057   12.503551
Au   16.233366   15.533688   15.744728
Au   16.257175   17.381252   18.006718
Au   18.204483   15.448703   17.631818
Au   16.766747   18.277347   15.310985
Au   16.242160   15.137778   19.589624
Au   17.406316   19.303279   12.652958
Au   15.316601   21.063929   13.022032
Au   17.309527   20.912878   14.891182
Au   16.767335   20.014904   17.411189
Au   18.904264   16.331115   15.061301
Au   19.301726   19.025247   14.628454
Au   18.768344   18.121908   17.150411
