55
Generated with con2xyz
Au   16.376248   18.404612   8.564768
Au   16.190841   16.256136   13.535773
Au   16.237047   16.088367   16.463808
Au   16.243094   15.863327   19.212415
Au   16.219753   17.333355   10.982886
Au   18.614411   16.057787   14.882590
Au   18.632575   15.949002   17.859070
Au   15.891216   20.302666   10.511106
Au   15.691551   19.177796   13.058254
Au   17.191152   18.214188   18.186063
Au   13.956235   18.577698   9.958673
Au   14.449704   17.906625   15.241921
Au   14.453809   17.633686   18.073856
Au   13.778010   15.958814   9.997485
Au   14.064732   15.096095   14.835356
Au   19.135546   13.721323   16.605014
Au   18.032579   13.971142   9.788731
Au   17.513708   12.816864   12.348500
Au   16.621840   13.673066   17.667396
Au   20.746692   17.741917   14.016288
Au   18.165764   20.444895   17.052010
Au   18.308797   18.155901   12.811583
Au   19.645659   18.094430   16.531319
Au   15.179438   21.830677   12.637365
Au   16.664379   21.209661   14.867903
Au   17.816835   20.954361   12.399507
Au   15.408434   19.994540   16.995606
Au   13.668151   17.187561   12.513110
Au   12.725900   19.396215   16.820686
Au   11.595456   15.766827   14.087436
Au   14.108284   14.892941   17.782266
Au   13.095618   14.524251   12.171528
Au   16.888571   13.790028   14.923901
Au   18.476291   16.703211   9.387663
Au   14.936901   12.827363   13.314668
Au   20.564896   15.098368   9.985238
Au   12.403609   12.899808   14.167889
Au   18.512385   15.431732   12.015085
Au   19.591174   13.539253   14.015156
Au   21.054237   15.421688   15.516451
Au   20.341814   19.945834   12.176187
Au   17.189281   18.501531   15.379481
Au   19.326583   20.124131   14.640706
Au   18.413587   19.272246   10.273664
Au   13.231912   19.928784   12.176217
Au   13.894201   20.633763   14.723565
Au   12.011142   18.525672   14.291024
Au   12.288061   16.750415   16.526671
Au   14.476561   12.767713   16.078594
Au   11.943318   14.100929   16.407617
Au   15.754748   14.582086   11.285611
Au   20.024042   13.015729   11.431712
Au   16.101106   15.671276   8.734420
Au   21.163824   15.323648   12.743326
Au   20.467357   17.480243   11.192385
