55
Generated with con2xyz
Au   14.566022   13.884091   9.964824
Au   14.566022   13.884091   12.648581
Au   14.566022   13.884091   15.543717
Au   14.566022   13.884091   18.438853
Au   14.566022   13.884091   21.122610
Au   16.880789   14.636204   11.291607
Au   16.882710   14.636828   14.132818
Au   16.882710   14.636828   16.954616
Au   16.880789   14.636204   19.795827
Au   14.566022   16.317981   11.291607
Au   14.566022   16.320000   14.132818
Au   14.566022   16.320000   16.954616
Au   14.566022   16.317981   19.795827
Au   12.251255   14.636204   11.291607
Au   12.249334   14.636828   14.132818
Au   12.249334   14.636828   16.954616
Au   12.251255   14.636204   19.795827
Au   13.135418   11.915032   11.291607
Au   13.134230   11.913398   14.132818
Au   13.134230   11.913398   16.954616
Au   13.135418   11.915032   19.795827
Au   15.996627   11.915032   11.291607
Au   15.997814   11.913398   14.132818
Au   15.997814   11.913398   16.954616
Au   15.996627   11.915032   19.795827
Au   19.042636   15.338630   12.807505
Au   19.112490   15.361327   15.543717
Au   19.042636   15.338630   18.279929
Au   16.852844   17.031631   12.723460
Au   16.910195   17.110567   15.543717
Au   16.852844   17.031631   18.363974
Au   14.566022   18.591080   12.807505
Au   14.566022   18.664530   15.543717
Au   14.566022   18.591080   18.279929
Au   12.279200   17.031631   12.723460
Au   12.221850   17.110567   15.543717
Au   12.279200   17.031631   18.363974
Au   10.089409   15.338630   12.807505
Au   10.019554   15.361327   15.543717
Au   10.089409   15.338630   18.279929
Au   10.865866   12.681837   12.723460
Au   10.773072   12.651686   15.543717
Au   10.865866   12.681837   18.363974
Au   11.799323   10.076056   12.807505
Au   11.756151   10.016634   15.543717
Au   11.799323   10.076056   18.279929
Au   14.566022   9.993516   12.723460
Au   14.566022   9.895946   15.543717
Au   14.566022   9.993516   18.363974
Au   17.332721   10.076056   12.807505
Au   17.375894   10.016634   15.543717
Au   17.332721   10.076056   18.279929
Au   18.266178   12.681837   12.723460
Au   18.358973   12.651686   15.543717
Au   18.266178   12.681837   18.363974
