55
Generated with con2xyz
Au   13.271920   13.953155   10.406707
Au   16.718069   11.974115   12.901871
Au   17.866060   13.957481   9.484980
Au   17.944207   11.555515   15.360900
Au   18.089536   11.425395   10.566327
Au   11.962139   14.657993   12.686364
Au   19.233814   10.889014   12.990037
Au   17.719781   16.619430   8.756004
Au   14.231521   13.215200   12.805767
Au   12.957752   14.126923   15.122386
Au   15.401583   12.787698   15.296365
Au   15.184122   15.444450   14.298984
Au   14.786584   14.885580   17.021954
Au   14.027104   16.132062   11.787706
Au   16.482894   14.704305   11.911140
Au   15.423748   15.281282   9.462641
Au   12.776195   16.702249   14.224022
Au   14.604847   17.502980   16.108799
Au   15.013642   18.155039   13.424404
Au   16.325944   17.471676   10.986761
Au   21.498020   12.263085   12.214643
Au   19.748566   12.362075   17.312410
Au   17.234132   13.542314   17.236204
Au   21.500202   13.333397   19.038306
Au   20.312516   12.816132   14.628336
Au   19.101812   14.458255   19.087674
Au   20.347337   12.793381   9.795992
Au   19.045482   13.461929   12.096055
Au   21.481320   14.845075   11.271588
Au   20.162652   15.366935   8.894664
Au   17.715543   14.126437   14.483155
Au   17.085684   16.253142   16.263776
Au   19.629178   14.966083   16.434003
Au   20.094929   15.567181   13.678547
Au   16.658979   15.699050   18.879783
Au   18.967554   17.113334   18.288157
Au   18.670834   18.682740   10.271086
Au   15.613189   12.611089   10.393569
Au   18.858390   16.107622   11.172804
Au   17.503596   16.894562   13.505474
Au   16.840744   18.996389   15.331794
Au   19.408149   17.635612   15.467858
Au   19.909632   18.336858   12.698156
Au   16.492432   18.282461   17.975372
Au   18.748733   19.635094   17.215689
Au   17.385408   19.474152   12.617076
Au   19.196485   20.208738   14.585449
Au   22.114683   13.782115   16.505294
Au   21.124035   17.427415   10.406172
Au   22.513374   14.308831   13.798146
Au   22.025235   16.404033   15.600723
Au   21.456300   15.870207   18.280678
Au   22.310279   16.968528   12.885025
Au   21.667662   18.975994   14.705281
Au   21.215335   18.431941   17.331278
