55
Generated with con2xyz
Au   9.217268   13.571669   14.284146
Au   15.752304   14.929457   13.005260
Au   16.498360   12.812121   14.655212
Au   15.572591   13.418607   17.355432
Au   14.561608   11.851971   19.456402
Au   15.783774   13.288556   10.776983
Au   16.627875   15.452968   15.620544
Au   17.205268   12.506674   19.235751
Au   16.459552   15.191484   19.337792
Au   13.765801   18.337403   12.026571
Au   14.546847   17.087307   14.346351
Au   14.668050   16.294992   17.513872
Au   17.229046   17.213908   17.600848
Au   14.603374   15.974589   10.755532
Au   12.875211   15.146013   12.979271
Au   13.799119   14.535455   15.538047
Au   12.700366   12.768289   17.615878
Au   14.216187   11.068521   10.914908
Au   14.077696   12.599898   13.099927
Au   14.293948   11.451824   15.685206
Au   13.183443   10.074048   17.803449
Au   17.340464   15.519659   10.804420
Au   14.480450   9.739765   13.428954
Au   18.333653   14.475074   17.611264
Au   18.099801   11.889857   16.695466
Au   18.111565   13.443275   12.377077
Au   18.354546   16.013234   13.361830
Au   15.572715   19.695469   13.705613
Au   16.398670   17.596759   12.233347
Au   15.105598   18.791511   16.357177
Au   19.229494   16.451586   15.951825
Au   13.124674   19.570738   14.544705
Au   12.564803   17.546817   16.193101
Au   13.911207   14.448154   19.436364
Au   11.629539   17.597213   13.503871
Au   11.094069   15.419130   15.137897
Au   12.032640   15.398664   17.729744
Au   11.975254   16.568198   10.916385
Au   8.323047   11.814097   16.060199
Au   10.086561   13.596777   16.931017
Au   10.093436   15.572514   12.566032
Au   11.825548   12.630257   14.893736
Au   10.690967   10.942775   16.881862
Au   13.112449   13.656163   10.673251
Au   9.892123   10.896183   14.148442
Au   12.238205   9.670393   15.098800
Au   11.012065   13.078742   12.280157
Au   12.095659   10.657504   12.551220
Au   14.615735   8.698300   16.004916
Au   16.547685   11.171682   12.403986
Au   16.733896   10.040466   15.024923
Au   15.980155   10.473146   17.673469
Au   18.812302   11.398861   14.026382
Au   19.059577   13.911880   14.999273
Au   17.299272   18.055377   14.922795
