55
Generated with con2xyz
Au   12.070234   13.790988   12.818320
Au   11.292773   13.006302   15.341627
Au   12.956181   13.165463   17.602914
Au   11.720776   15.429985   16.533567
Au   15.200179   11.632174   17.659772
Au   13.061460   14.825528   10.464344
Au   15.247639   13.320914   10.497694
Au   15.730050   16.111917   10.284859
Au   14.280923   12.238243   12.924288
Au   17.194203   12.882866   19.018465
Au   15.952390   12.126183   15.065717
Au   13.419527   11.366403   15.548861
Au   18.579310   15.006112   18.055795
Au   13.819232   19.720754   12.485580
Au   11.014596   16.065666   11.740425
Au   10.161927   15.202889   14.215084
Au   14.763754   14.988626   12.620781
Au   11.403933   18.509829   12.815852
Au   13.836120   14.008424   15.086377
Au   13.537095   15.688445   18.695271
Au   15.631152   14.294511   17.301216
Au   14.322495   16.599072   16.192920
Au   14.707622   13.461520   19.717458
Au   16.291372   15.818561   19.437250
Au   10.629995   17.644204   15.327385
Au   12.352300   17.929345   17.463133
Au   14.913823   18.042175   18.521285
Au   15.467696   19.269319   16.039158
Au   17.751696   14.361935   10.335695
Au   13.505720   17.313716   11.391569
Au   18.417553   17.022015   10.371911
Au   17.472746   16.021940   12.608528
Au   21.350561   15.383479   13.965750
Au   19.936586   15.109747   11.670316
Au   16.881252   13.129297   12.634502
Au   18.108139   12.956774   16.404102
Au   19.140843   13.784165   13.959397
Au   19.884132   17.518663   12.858659
Au   16.388374   18.460076   11.552858
Au   12.620984   16.332844   13.949810
Au   16.124648   20.354943   13.567212
Au   15.118563   17.601660   13.730615
Au   21.372091   17.778410   15.176638
Au   16.607052   14.885556   14.875353
Au   16.964909   17.028487   16.931103
Au   20.591663   14.134934   16.292046
Au   19.315343   18.724916   16.741244
Au   18.556301   17.483659   19.097777
Au   17.687017   18.325346   14.366599
Au   12.963524   18.977340   14.999588
Au   17.762060   20.729283   15.719833
Au   17.141295   19.567168   18.150369
Au   19.103344   16.172674   15.332067
Au   19.909760   19.843576   14.319492
Au   20.738473   16.553841   17.542050
